200
cutoff_factor=1.20000000 nneightol=1.20000000 Lattice="28.43889000       0.00000000       0.00000000       0.00000000      28.39811000       0.00000000       0.00000000       0.00000000      29.08140000" Properties=species:S:1:pos:R:3:Z:I:1
P               0.53089400      0.01416860     -0.02038210      15
I              -1.81158000     -2.12329000     -0.39223700      53
I              -1.48090000      2.50815000     -0.50027500      53
I              -0.30665900      0.18156500      3.17934000      53
I               1.09792000      0.01568950     -3.23068000      53
I               2.65904000     -2.32659000      0.40306700      53
I               2.88015000      2.09475000      0.51080400      53
H              -2.71859000      0.20866200     -2.35842000       1
H              -2.67754000     -0.54150500      2.69242000       1
H               0.68102300     -3.22954000     -2.33140000       1
H               0.01211580      3.52211000     -2.33382000       1
H               0.03262750      2.73500000      3.40357000       1
H              -4.03012000     -0.92259300      1.73876000       1
C              -3.80565000      0.19726300     -2.46312000       6
N              -3.66644000     -0.87295300      2.70765000       7
H               0.75809200     -3.48807000      2.96802000       1
H               0.33241000      4.41051000      1.68361000       1
H              -4.25356000      1.01108000     -1.88911000       1
H              -4.21123000     -0.76524700     -2.14302000       1
H               3.25546000     -0.38094900      3.52059000       1
H              -0.85130700     -3.53724000     -3.21421000       1
C               0.23096700     -3.68539000     -3.21624000       6
H               0.40513600     -4.69129000      1.68361000       1
H               4.54711000      1.01108000     -1.88911000       1
N               0.43465400      3.95323000     -3.18412000       7
H              -3.65669000     -1.85042000      3.06596000       1
H               4.58944000     -0.76524700     -2.14302000       1
H               1.46270000      3.78610000     -3.18104000       1
H               4.77055000     -0.92259300      1.73876000       1
N              -0.00343067      3.74484000      3.65460000       7
H               0.67181200     -3.27022000     -4.12517000       1
H               0.00390335      3.48317000     -4.00672000       1
C               0.83524700     -4.53792000      2.67604000       6
H               1.80521000      4.23881000      2.69492000       1
C               0.76252100      4.56388000      2.67604000       6
H               4.30750000      1.01849000      3.12584000       1
H               3.62631000      0.37979800     -4.01378000       1
H              -1.00943000      4.02302000      3.65921000       1
C               4.27566000      0.00902147      3.54194000       6
H              -4.49317000      1.01849000      3.12584000       1
C               4.99502000      0.19726300     -2.46312000       6
N              -4.14035000      0.39544100     -3.89896000       7
C              -4.52501000      0.00902147      3.54194000       6
H              -3.78034000      1.30388000     -4.23933000       1
H              -3.70899000     -0.35208100     -4.48493000       1
H               1.87793000     -4.86300000      2.69492000       1
N               5.13423000     -0.87295300      2.70765000       7
P              -3.94590000      4.51699000     -0.04565820      15
P              -3.87318000     -4.58481000     -0.04565820      15
H               0.38651000      3.84778000      4.60704000       1
H               0.08484190     -5.57969000     -2.33382000       1
N               0.50738000     -5.14858000     -3.18412000       7
N               4.66032000      0.39544100     -3.89896000       7
H              -4.13569000      0.00444349      4.56253000       1
H               5.14398000     -1.85042000      3.06596000       1
I              -5.92052000      2.09475000      0.51080400      53
C               0.15824100      5.41642000     -3.21624000       6
H              -0.93670200     -5.07879000      3.65921000       1
H               0.60829700      5.87226000     -2.33140000       1
P               0.21636400     -0.07412790      6.36942000      15
H               1.53543000     -5.31570000     -3.18104000       1
P               0.32207700     -0.00249414     -6.37629000      15
H               0.68536600      5.61374000      2.96802000       1
I              -3.33372000     -4.39473000      3.26517000      53
N               0.06929540     -5.35696000      3.65460000       7
H              -0.92403300      5.56457000     -3.21421000       1
I              -2.18979000     -1.88431000     -5.84322000      53
H               4.66499000      0.00444349      4.56253000       1
H               6.08208000      0.20866200     -2.35842000       1
H              -5.17436000      0.37979800     -4.01378000       1
H              -5.54521000     -0.38094900      3.52059000       1
I              -6.14163000     -2.32659000      0.40306700      53
I              -1.65156000      2.58064000     -5.83277000      53
P               4.85477000      4.51699000     -0.04565820      15
I              -3.40645000      4.70708000      3.26517000      53
H               5.02033000      1.30388000     -4.23933000       1
H               6.12313000     -0.54150500      2.69242000       1
P               4.92750000     -4.58481000     -0.04565820      15
I              -1.40817000     -6.59365000     -0.50027500      53
I               4.06872000      4.37273000     -3.17231000      53
I               2.15925000     -2.54804000      5.89288000      53
H               5.09169000     -0.35208100     -4.48493000       1
I               2.57891000      2.10029000      5.97958000      53
H               0.07662940     -5.61864000     -4.00672000       1
H               0.45923700     -5.25402000      4.60704000       1
I               4.14144000     -4.72908000     -3.17231000      53
H               0.59908600      5.83159000     -4.12517000       1
I              -4.73195000      4.37273000     -3.17231000      53
H               0.10535400     -6.36681000      3.40357000       1
I              -1.88431000      6.97851000     -0.39223700      53
I               2.58631000      6.77521000      0.40306700      53
I               6.98909000     -2.12329000     -0.39223700      53
I              -4.65923000     -4.72908000     -3.17231000      53
I              -2.29550000     -1.95595000      6.90249000      53
I              -1.75728000      2.50900000      6.91294000      53
I               2.68463000      2.17192000     -6.76613000      53
I               2.95287000     -7.00706000      0.51080400      53
I               2.26496000     -2.47640000     -6.85283000      53
I               5.46695000     -4.39473000      3.26517000      53
I               7.31977000      2.50815000     -0.50027500      53
I               5.39422000      4.70708000      3.26517000      53
P              -8.26978000      0.01416860     -0.02038210      15
I              -7.70275000      0.01568950     -3.23068000      53
H              -6.99546000      4.23881000      2.69492000       1
H              -3.72941000      7.25138000      3.06596000       1
P              -4.06215000     -4.44261000     -6.32559000      15
H              -7.33797000      3.78610000     -3.18104000       1
P              -4.13488000      4.65919000     -6.32559000      15
H              -6.92274000     -4.86300000      2.69492000       1
I              -6.22176000      2.10029000      5.97958000      53
P              -4.16786000     -4.51425000      6.42011000      15
I              -1.57884000     -6.52117000     -5.83277000      53
P              -4.24059000      4.58756000      6.42011000      15
I               6.61088000     -1.88431000     -5.84322000      53
H              -8.11965000     -3.22954000     -2.33140000       1
H               0.49222400      3.91942000     -8.13867000       1
I               2.08652000      6.55377000      5.89288000      53
P               4.73852000     -4.44261000     -6.32559000      15
I               8.49401000      0.18156500      3.17934000      53
P               0.60362000     -9.08764000     -0.02038210      15
H              -3.81470000     -0.42371400      8.26078000       1
P               4.56008000      4.58756000      6.42011000      15
P               4.63281000     -4.51425000      6.42011000      15
H              -4.02997000      0.07607720     -8.18317000       1
P               0.45816800      9.11597000     -0.02038210      15
P               4.66579000      4.65919000     -6.32559000      15
I              -5.84780000     -7.00706000      0.51080400      53
I              -6.21436000      6.77521000      0.40306700      53
I              -6.64142000     -2.54804000      5.89288000      53
H              -8.04258000     -3.48807000      2.96802000       1
H               0.56609800     -3.34185000      8.62054000       1
H               7.94936000     -3.53724000     -3.21421000       1
H              -4.18084000     -8.09072000     -1.88911000       1
H              -4.10285000      8.17921000      1.73876000       1
P               9.33156000      0.01416860     -0.02038210      15
H               5.07126000      7.25138000      3.06596000       1
I              -6.11604000      2.17192000     -6.76613000      53
H              -0.10181000      3.41154000      8.73899000       1
H              -2.75027000      8.56030000      2.69242000       1
H               3.52060000      0.30816400      8.73193000       1
H              -3.88605000      1.23224000      8.50638000       1
N              -3.73917000      8.22885000      2.70765000       7
H               4.77070000      0.07607720     -8.18317000       1
I              -0.23393300     -8.92024000      3.17934000      53
H               7.79124000      4.02302000      3.65921000       1
H               4.61983000     -8.09072000     -1.88911000       1
H              -7.26524000     -5.31570000     -3.18104000       1
C              -7.96542000     -4.53792000      2.67604000       6
I              -2.26252000      7.21749000     -5.84322000      53
I               0.99220300     -0.05594420      9.51503000      53
I              -0.20094600      0.25319900     -9.56637000      53
H              -2.64586000     -8.89314000     -2.35842000       1
I               7.14911000      2.58064000     -5.83277000      53
I               2.65164000     -7.00152000      5.97958000      53
H               4.69782000      8.17921000      1.73876000       1
H              -4.28396000      8.33656000     -2.14302000       1
H              -3.70761000     -7.79793000     -4.23933000       1
C              -8.03815000      4.56388000      2.67604000       6
I              -9.10733000      0.18156500      3.17934000      53
H               4.98597000     -0.42371400      8.26078000       1
H               0.56495000     -5.18239000     -8.13867000       1
I               6.50517000     -1.95595000      6.90249000      53
H              -8.12886000     -3.27022000     -4.12517000       1
H              -8.46826000      4.41051000      1.68361000       1
I              -1.68455000     -6.59280000      6.91294000      53
H               4.38023000     -8.08331000      3.12584000       1
I               1.17064000     -9.08612000     -3.23068000      53
H               4.51671000      8.33656000     -2.14302000       1
I               1.02519000      9.11749000     -3.23068000      53
H              -4.42044000     -8.08331000      3.12584000       1
H              -8.78856000      3.52211000     -2.33382000       1
H               0.13834100      2.80663000     -9.34214000       1
H              -8.39554000     -4.69129000      1.68361000       1
H               8.81279000      3.52211000     -2.33382000       1
I               2.19224000      6.62540000     -6.85283000      53
N              -8.36602000      3.95323000     -3.18412000       7
I              -6.53571000     -2.47640000     -6.85283000      53
H              -8.76804000      2.73500000      3.40357000       1
N              -4.24606000      0.32380800      8.84674000       7
I              -0.37938500      9.28337000      3.17934000      53
H               3.36117000     -0.30931500     -9.22512000       1
I               6.91636000      6.97851000     -0.39223700      53
H               8.83330000      2.73500000      3.40357000       1
N               0.10228300      3.81648000     -9.09111000       7
C              -8.56970000     -3.68539000     -3.21624000       6
H               4.91462000      1.23224000      8.50638000       1
I               7.39250000     -6.59365000     -0.50027500      53
H               3.18273000      8.72086000      3.52059000       1
N               4.55461000      0.32380800      8.84674000       7
C              -3.73293000     -8.90454000     -2.46312000       6
H              -2.79131000      9.31047000     -2.35842000       1
H              -0.90371500      4.09465000     -9.08649000       1
N               5.06150000      8.22885000      2.70765000       7
H               7.86397000     -5.07879000      3.65921000       1
I               2.75735000     -6.92988000     -6.76613000      53
H               7.87664000      5.56457000     -3.21421000       1
I               7.04339000      2.50900000      6.91294000      53
C               4.38137000      0.08065520     -9.20377000       6
H              -5.28007000      0.30816400      8.73193000       1
C              -4.41930000      0.08065520     -9.20377000       6
