200
cutoff_factor=1.20000000 nneightol=1.20000000 Lattice="27.74198000       0.00000000       0.00000000       0.00000000      29.62395000       0.00000000       0.00000000       0.00000000      28.73759000" Properties=species:S:1:pos:R:3:Z:I:1
H              -1.75899000      0.77105600     -1.22372000       1
I               1.00381000     -2.16678000      0.35656300      53
H              -2.22927000      0.18183600      1.09575000       1
P               2.49686000      0.66904100      0.01144020      15
I               0.46916500      1.44029000     -2.37877000      53
N              -2.69993000      0.41410500     -0.95164900       7
I               0.50899900      2.01075000      2.15206000      53
H              -2.71670000     -0.60371200     -1.17029000       1
C              -2.98667000      0.68605000      0.49104600       6
H              -2.94798000      1.76555000      0.65281700       1
H               1.07837000     -1.35633000      3.23275000       1
H              -3.39133000      0.87546100     -1.56543000       1
H              -3.98120000      0.29967700      0.72414800       1
H               0.88330300     -0.49918600     -3.99171000       1
I              -2.57362000     -2.96110000     -2.39918000      53
P              -1.05926000     -4.54562000      0.00404793      15
C               1.09335000     -1.89952000      4.17968000       6
H               0.48692800      4.77224000      0.62197000       1
I              -3.23572000     -3.19833000      2.07069000      53
H               0.51602000     -2.82356000      4.10221000       1
H               3.74047000     -3.26159000      0.84161100       1
I               4.43204000     -0.21898400      2.40126000      53
I               4.54185000     -0.76869900     -2.07068000      53
H              -0.51129100     -0.77345500      4.98998000       1
N               0.90763000     -0.97537700     -4.91767000       7
H               0.60545200     -2.93259000     -4.19412000       1
H              -0.88448100     -2.04555000     -4.66375000       1
I               4.02654000      3.45089000     -0.36336000      53
N               0.47186200     -1.03459000      5.22351000       7
H               2.12113000     -2.11227000      4.47965000       1
H               1.38849000      5.13936000     -0.88618000       1
C               0.15400400     -2.25754000     -4.92473000       6
H               0.98403600     -0.14221200      5.33919000       1
H               4.58362000     -2.90434000     -0.54787500       1
C               0.55646900      5.43503000     -0.24332300       6
H              -0.37984800      5.43063000     -0.80530300       1
H               3.78398000      2.59449000      3.13599000       1
I              -2.70624000      0.45283300      4.85496000      53
H               0.51534700     -0.30062200     -5.60296000       1
H               1.90103000     -1.11702000     -5.20551000       1
I              -2.96963000      4.36302000     -2.13248000      53
P              -1.26368000      3.32600000      4.47084000      15
P              -1.18100000      3.31127000     -4.51827000      15
N               4.52573000     -3.57898000      0.24447600       7
I              -3.20614000      0.79000800     -4.82392000      53
H               3.33949000     -4.97274000     -0.80530300       1
I              -3.47037000      4.29939000      2.45314000      53
H               2.68680000      3.23093000      4.40113000       1
H               4.16611000      3.64356000     -2.89954000       1
C               3.72529000      3.01895000      4.14015000       6
H               0.45780900     -1.48333000      6.16533000       1
I               0.74970800     -6.04036000     -2.13248000      53
H               5.40794000     -3.51767000      0.79226700       1
H               0.21269500     -2.68199000     -5.92888000       1
C               4.27580000     -4.96834000     -0.24332300       6
I               0.24895900     -6.10398000      2.45314000      53
H              -5.59097000     -3.51767000      0.79226700       1
H               3.19701000      4.35344000     -4.07490000       1
I              -6.45707000     -0.76869900     -2.07068000      53
H               4.17673000      2.34389000      4.87075000       1
N               0.80639600      6.82439000      0.24447600       7
H               4.22432000      2.30333000     -4.96267000       1
P              -4.88929000     -1.81562000      4.54660000      15
P              -4.83497000     -1.95049000     -4.59404000      15
I              -6.56688000     -0.21898400      2.40126000      53
N               4.18016000      4.09230000     -3.84137000       7
H               4.20626000     -5.63114000      0.62197000       1
I               1.00206000      5.57972000     -4.20992000      53
H               7.01771000      0.29967700      0.72414800       1
H              -6.41529000     -2.90434000     -0.54787500       1
H              -2.58725000     -5.41870000     -3.72569000       1
I               0.99765700      2.31539000      6.66570000      53
H               1.68861000      6.88571000      0.79226700       1
H              -3.19295000     -5.42751000      3.46191000       1
H               0.02113410      7.14178000      0.84161100       1
I               0.47257300      1.92856000     -6.99418000      53
H               4.08663000      4.97586000      3.46191000       1
I               4.08447000     -4.33688000      4.24096000      53
H               5.10783000     -5.26401000     -0.88618000       1
N              -6.47318000     -3.57898000      0.24447600       7
I               0.36513900      6.06649000      4.24096000      53
N               4.47891000      4.30111000      4.14720000       7
H              -5.16948000      3.01462000     -4.58523000       1
H              -1.80727000     -6.24391000      3.85936000       1
P              -4.77860000      5.85776000      0.00404793      15
H               0.86428800      7.49903000     -0.54787500       1
C               4.80165000      3.22737000     -4.88520000       6
I              -3.25304000     -6.95248000     -0.36336000      53
I               3.95726000     -0.97709300     -6.61174000      53
I              -6.97238000      3.45089000     -0.36336000      53
H               4.69233000      4.98468000     -3.72569000       1
H               7.60759000      0.87546100     -1.56543000       1
P               6.10962000     -1.81562000      4.54660000      15
H               5.47231000      4.15947000      3.85936000       1
N              -2.80067000     -6.10227000      4.14720000       7
H              -5.52660000      4.15947000      3.85936000       1
P               6.16395000     -1.95049000     -4.59404000      15
H              -5.89108000     -5.26401000     -0.88618000       1
I               4.72140000     -4.82365000     -4.20992000      53
H              -3.11347000     -6.75981000     -2.89954000       1
H              -7.25845000     -3.26159000      0.84161100       1
H               5.82943000      3.01462000     -4.58523000       1
N              -3.09942000     -6.31108000     -3.84137000       7
C               8.01224000      0.68605000      0.49104600       6
H              -2.82499000     -5.62608000      5.07317000       1
I               4.32099000     -0.76387100      6.93240000      53
I              -3.06228000     -3.26573000     -6.91281000      53
H               8.05094000      1.76555000      0.65281700       1
H              -6.83281000      3.64356000     -2.89954000       1
H               4.45458000      4.77730000      5.07317000       1
H              -7.21494000      2.59449000      3.13599000       1
I              -3.23913000     -3.68660000      6.68611000      53
H              -4.08257000     -6.04994000     -4.07490000       1
C              -6.72311000     -4.96834000     -0.24332300       6
N               8.29898000      0.41410500     -0.95164900       7
H               8.28221000     -0.60371200     -1.17029000       1
H               4.78667000      3.77056000     -5.83212000       1
H              -2.31980000      0.01247140      8.17869000       1
I               4.04385000      7.20505000      2.07069000      53
C              -6.19726000      3.22737000     -4.88520000       6
P              -8.50206000      0.66904100      0.01144020      15
P               6.22032000      5.85776000      0.00404793      15
H              -1.88267000      1.60922000     -8.27261000       1
I               7.76319000     -3.19833000      2.07069000      53
I              -2.71552000      8.23660000      0.35656300      53
I               0.86075500     -5.49547000     -6.66361000      53
H               0.77135700     -8.63782000      0.65281700       1
H              -6.82218000      2.34389000      4.87075000       1
H              -6.77460000      2.30333000     -4.96267000       1
P               2.45565000     -7.07738000      4.47084000      15
I              -2.85858000      4.90791000     -6.66361000      53
P               2.53834000     -7.09210000     -4.51827000      15
I              -2.88579000      4.50778000      6.99420000      53
H              -1.45015000     -7.38875000     -4.58523000       1
N              -6.81875000      4.09230000     -3.84137000       7
H               8.76964000      0.18183600      1.09575000       1
N              -6.52000000      4.30111000      4.14720000       7
H              -6.79265000     -5.63114000      0.62197000       1
H              -6.30658000      4.98468000     -3.72569000       1
I               0.31824000     -1.67600000      8.70152000      53
C              -7.27363000      3.01895000      4.14015000       6
I              -6.27752000     -4.82365000     -4.20992000      53
H              -3.08435000     -0.50424800     -8.44291000       1
I               7.52854000      4.29939000      2.45314000      53
C              -2.47793000     -7.17600000     -4.88520000       6
H              -3.49560000     -7.80888000      3.13599000       1
H              -3.11388000      7.47078000     -4.19412000       1
I               4.70595000      7.44228000     -2.39918000      53
H              -3.55015000      1.86530000     -8.22326000       1
H              -7.65943000     -4.97274000     -0.80530300       1
H              -2.49291000     -6.63281000     -5.83212000       1
C              -3.55429000     -7.38443000      4.14015000       6
I               0.83354800     -5.89559000      6.99420000      53
H              -6.91228000      4.97586000      3.46191000       1
H              -3.20331000      7.57981000      4.10221000       1
I              -6.91444000     -4.33688000      4.24096000      53
I               7.79277000      0.79000800     -4.82392000      53
H               0.85457900      4.67277000      7.89458000       1
H              -4.08814000      0.30374100      8.25957000       1
I               8.42529000     -2.96110000     -2.39918000      53
H              -2.84401000      2.37214000      8.51700000       1
H              -6.21224000      3.77056000     -5.83212000       1
H               9.23992000      0.77105600     -1.22372000       1
N              -2.76489000      1.54791000     -8.82040000       7
C              -3.15183000      0.30814200      8.82155000       6
I               8.02929000      4.36302000     -2.13248000      53
P               2.51202000      0.73086500      9.06892000      15
P               2.64904000      0.58127200     -9.06083000      15
H               3.89929000     -4.25143000      7.49944000       1
H              -1.59820000      8.29111000      4.47965000       1
H              -6.54433000      4.77730000      5.07317000       1
H              -4.59278000     -7.17244000      4.40113000       1
I               0.45525500     -1.82559000     -9.42824000      53
I               8.29268000      0.45283300      4.85496000      53
I               4.22833000     -8.39262000      2.15206000      53
I              -6.67792000     -0.76387100      6.93240000      53
H               0.32800600     -9.52791000     -1.56543000       1
H               1.47902000      5.30873000     -7.96912000       1
H               0.17995500      6.15194000      7.49944000       1
I              -7.04166000     -0.97709300     -6.61174000      53
C               0.73266500     -9.71732000      0.49104600       6
C              -3.01481000      0.15854800     -9.30820000       6
H              -7.80191000      4.35344000     -4.07490000       1
C              -2.62598000      8.50386000      4.17968000       6
I               0.82251100      9.63468000     -2.07068000      53
N              -2.90190000      1.69750000      9.30935000       7
H               1.96034000     -9.63232000     -1.22372000       1
H              -3.10284000     -8.05948000      4.87075000       1
P               2.44461000      8.45289000     -4.59404000      15
H              -8.31211000      3.23093000      4.40113000       1
N               0.87135200      5.69059000      8.11323000       7
H              -0.27290200      5.42657000     -8.34073000       1
H              -2.64096000      9.04705000      3.23275000       1
H              -3.05526000     -8.10005000     -4.96267000       1
P               2.39029000      8.58775000      4.54660000      15
I              -6.29296000      7.44228000     -2.39918000      53
H               6.91634000     -6.04994000     -4.07490000       1
H               1.81229000      6.04754000      7.84116000       1
N               1.01940000     -9.98927000     -0.95164900       7
H               7.80596000     -5.42751000      3.46191000       1
