200
cutoff_factor=1.20000000 nneightol=1.20000000 Lattice="28.81390000       0.00000000       0.00000000       0.00000000      28.66891000       0.00000000       0.00000000       0.00000000      28.16308000" Properties=species:S:1:pos:R:3:Z:I:1
H              -0.40187400     -0.14447300     -0.58480800       1
C               0.03058700     -1.13859000     -0.70575000       6
H               0.64691600     -1.39756000      0.15638800       1
H              -0.75659400     -1.88284000     -0.84649600       1
N               0.89702300     -1.13255000     -1.92170000       7
H               1.65018000     -0.43150400     -1.84717000       1
I              -1.38891000      2.44475000      0.28693700      53
H               0.32813600     -0.95194000     -2.77421000       1
H               1.33615000     -2.06986000     -2.06144000       1
I               2.30902000     -0.50590700      2.37068000      53
H               0.44857700      1.90721000      2.75964000       1
I              -2.17029000     -1.29614000      2.84638000      53
I              -3.92022000     -0.82728900     -1.40899000      53
P              -3.98528000      0.93482400      1.30551000      15
I               3.06210000      3.05873000     -0.26597300      53
C               0.26953200      2.38365000      3.72591000       6
P               0.46088800      4.49638000     -1.32029000      15
I               0.33888600      2.61609000     -3.91367000      53
H              -0.76907000      2.71331000      3.80161000       1
P               0.60467700     -2.58809000      3.91947000      15
H              -3.48500000      1.26338000     -3.05437000       1
H               0.51470300      1.69912000      4.54091000       1
I               0.47631300     -4.66037000      1.42530000      53
H              -2.30159000      2.18101000     -3.84300000       1
P               4.89727000      0.93482400      1.30551000      15
I               4.96234000     -0.82728900     -1.40899000      53
I              -1.14024000     -1.39770000     -4.92721000      53
H               0.95476300      4.25735000      3.06654000       1
H              -3.90360000     -3.67500000      0.31995100       1
N               1.15534000      3.58191000      3.83216000       7
N              -3.31123000      1.92683000     -3.83695000       7
H               2.15714000      3.30615000      3.77531000       1
H              -2.23361000     -4.86782000      1.61794000       1
I               2.34519000     -4.25240000     -2.84173000      53
H              -3.27898000     -4.01767000      2.61266000       1
I              -2.06640000     -4.91364000     -2.32008000      53
H               3.66852000      2.83041000     -3.70809000       1
H              -3.92533000      3.62441000     -2.74552000       1
H               3.70633000     -4.57463000      1.21093000       1
H              -3.53230000      1.43629000     -4.72346000       1
N              -3.21566000     -4.81852000      1.95514000       7
P              -3.82316000     -2.85660000     -3.87871000      15
H               4.97896000     -3.67500000      0.31995100       1
C              -4.15885000     -4.61439000      0.81553900       6
H               1.00115000      4.06161000      4.73657000       1
H               5.39756000      1.26338000     -3.05437000       1
I              -4.05784000      3.00500000      3.86248000      53
I               3.27500000     -0.64409000     -5.45397000      53
C              -4.16704000      3.14167000     -3.69492000       6
I               0.43349200      6.32647000      1.42530000      53
I              -5.82046000      3.05873000     -0.26597300      53
I               0.31923300     -0.78875700      6.54066000      53
P               0.62433000      0.81676500     -6.53486000      15
P               0.50370900     -6.49046000     -1.32029000      15
C               4.72370000     -4.61439000      0.81553900       6
H              -2.27643000      6.11902000      1.61794000       1
H               4.95722000      3.62441000     -2.74552000       1
C               4.71552000      3.14167000     -3.69492000       6
H              -4.04950000     -5.45193000      0.12328500       1
H              -3.48007000      5.28993000      2.46419000       1
H               1.06363000     -3.52038000     -5.71777000       1
I              -2.10922000      6.07320000     -2.32008000      53
I               4.82472000      3.00500000      3.86248000      53
H              -4.09232000      5.53491000      0.12328500       1
P               5.05939000     -2.85660000     -3.87871000      15
H              -5.21404000      2.83041000     -3.70809000       1
I              -6.57353000     -0.50590700      2.37068000      53
H              -5.17623000     -4.57463000      1.21093000       1
H              -3.55195000     -1.96856000      5.73088000       1
N               5.57132000      1.92683000     -3.83695000       7
H              -3.43724000     -5.69691000      2.46419000       1
H              -2.32124000     -1.22384000      6.61133000       1
H              -3.95627000      3.81315000     -4.53029000       1
H              -3.97593000      0.40830200      5.92404000       1
I               3.25534000     -4.04894000      5.00037000      53
N              -3.25848000      6.16832000      1.95514000       7
H               5.35026000      1.43629000     -4.72346000       1
H               4.83306000     -5.45193000      0.12328500       1
H               4.79023000      5.53491000      0.12328500       1
H               5.60357000     -4.01767000      2.61266000       1
I               6.71226000     -1.29614000      2.84638000      53
I              -1.15990000     -4.80255000      5.52712000      53
H               0.99758300     -6.72949000      3.06654000       1
H              -7.23237000     -0.43150400     -1.84717000       1
H               3.66351000      6.41221000      1.21093000       1
N              -3.33089000     -1.47802000      6.61738000       7
I               2.30237000      6.73444000     -2.84173000      53
C              -4.20167000      6.37245000      0.81553900       6
N               5.66689000     -4.81852000      1.95514000       7
H               3.64887000     -0.57443800      6.74624000       1
H               4.92628000      3.81315000     -4.53029000       1
H               4.90663000      0.40830200      5.92404000       1
H               0.53435600      5.10397000     -5.91342000       1
N               1.21781000     -4.00008000     -6.62217000       7
I              -5.60756000     -0.64409000     -5.45397000      53
I               7.49364000      2.44475000      0.28693700      53
H               6.58097000      2.18101000     -3.84300000       1
C               4.68088000      6.37245000      0.81553900       6
H               5.40249000      5.28993000      2.46419000       1
C              -4.18669000     -0.26318400      6.75942000       6
H               5.33061000     -1.96856000      5.73088000       1
H              -7.54640000     -2.06986000     -2.06144000       1
H              -3.32180000      6.96917000      2.61266000       1
H               1.01724000     -3.32464000     -7.38779000       1
I              -2.15064000      2.10872000     -7.60795000      53
C               4.69586000     -0.26318400      6.75942000       6
H               2.21961000     -4.27584000     -6.67903000       1
H               5.44531000     -5.69691000      2.46419000       1
H              -0.70659500     -4.86868000     -6.65272000       1
N              -7.98553000     -1.13255000     -1.92170000       7
I              -6.53736000     -4.25240000     -2.84173000      53
H              -3.94642000      7.31185000      0.31995100       1
H              -8.23564000     -1.39756000      0.15638800       1
H              -5.21905000      6.41221000      1.21093000       1
H               0.57717700     -5.88287000     -5.91342000       1
I              -1.20272000      6.18429000      5.52712000      53
H               8.12596000     -1.88284000     -0.84649600       1
H              -6.72542000      3.30615000      3.77531000       1
H               6.64894000     -4.86782000      1.61794000       1
N               1.19816000     -7.40493000      3.83216000       7
H               1.04397000     -6.92523000      4.73657000       1
H              -3.50465000     -2.14147000      7.39996000       1
H               8.48068000     -0.14447300     -0.58480800       1
C               0.33200600     -5.19834000     -6.72843000       6
H              -3.25933000     -0.61282000     -7.84167000       1
I               3.10492000     -7.92811000     -0.26597300      53
I              -5.62721000     -4.04894000      5.00037000      53
H              -5.23369000     -0.57443800      6.74624000       1
N               5.62407000      6.16832000      1.95514000       7
I               2.28272000      3.32959000      7.61260000      53
I              -1.34609000     -8.54209000      0.28693700      53
H              -3.94499000      0.21955700      7.70881000       1
I               6.81615000     -4.91364000     -2.32008000      53
N               5.55167000     -1.47802000      6.61738000       7
H              -3.88251000     -7.36243000     -2.74552000       1
I              -2.12888000      2.66835000      8.13425000      53
H               4.93614000      7.31185000      0.31995100       1
H               0.30848300     -4.35679000      7.68012000       1
H               2.19996000     -7.68069000      3.77531000       1
C               0.28918600      5.78850000     -6.72843000       6
I               2.32867000      2.89894000     -8.08366000      53
C              -8.85197000     -1.13859000     -0.70575000       6
I              -3.99536000     -4.57699000     -6.59185000      53
P              -3.88564000      4.72539000      6.57562000      15
H              -3.41759000     -2.29206000     -7.99015000       1
C               8.91314000     -1.13859000     -0.70575000       6
H              -8.55442000     -0.95194000     -2.77421000       1
H              -0.74941600      6.11816000     -6.65272000       1
H              -8.43398000      1.90721000      2.75964000       1
I               0.49596700     -1.25552000     -9.02903000      53
H              -0.72624900     -8.27353000      3.80161000       1
I               3.21252000      6.93790000      5.00037000      53
H               6.60612000      6.11902000      1.61794000       1
H               4.93757000      0.21955700      7.70881000       1
H              -0.79941500      9.10400000     -0.84649600       1
N              -3.19601000     -1.41367000     -8.49919000       7
P               0.44123400      1.09153000      9.13405000      15
H              -2.21396000     -1.46297000     -8.83640000       1
H               1.29333000      8.91698000     -2.06144000       1
I               0.38170700     -8.37075000     -3.91367000      53
I               7.74231000     -1.39770000     -4.92721000      53
P               0.56185600      8.39875000      3.91947000      15
H               5.56075000      6.96917000      2.61266000       1
H              -9.28443000     -0.14447300     -0.58480800       1
H               5.00004000     -7.36243000     -2.74552000       1
N              -7.72722000      3.58191000      3.83216000       7
H              -3.91345000     -7.17369000     -4.53029000       1
H               8.11349000      2.71331000      3.80161000       1
H               0.46823100      5.31206000     -7.69469000       1
C               0.31235300     -8.60319000      3.72591000       6
I               6.77333000      6.07320000     -2.32008000      53
H               6.56131000     -1.22384000      6.61133000       1
H               5.37790000     -2.14147000      7.39996000       1
I               4.88719000     -4.57699000     -6.59185000      53
H               1.02081000      7.46646000     -5.71777000       1
H               0.49139800     -9.07963000      2.75964000       1
H              -7.92779000      4.25735000      3.06654000       1
P               4.99692000      4.72539000      6.57562000      15
P              -8.27788000     -2.58809000      3.91947000      15
H               1.63053000     -3.83635000      8.60716000       1
H               0.51105100     -5.67478000     -7.69469000       1
C              -4.12422000     -7.84517000     -3.69492000       6
H               0.60409500      9.58928000      0.15638800       1
H               9.52947000     -1.39756000      0.15638800       1
P              -8.42167000      4.49638000     -1.32029000      15
H               9.21069000     -0.95194000     -2.77421000       1
H               5.62323000     -0.61282000     -7.84167000       1
H              -8.36785000      1.69912000      4.54091000       1
C              -8.61302000      2.38365000      3.72591000       6
N               1.17499000      6.98676000     -6.62217000       7
H               3.71134000     -8.15643000     -3.70809000       1
N               0.87736900     -4.53740000      8.53263000       7
H               2.17679000      6.71100000     -6.67903000       1
I              -8.40624000     -4.66037000      1.42530000      53
I              -4.01502000     -7.98184000      3.86248000      53
I              -8.54367000      2.61609000     -3.91367000      53
P              -3.86598000      8.13024000     -3.87871000      15
I              -5.77764000     -7.92811000     -0.26597300      53
H               4.96910000     -7.17369000     -4.53029000       1
I              -6.58018000      6.73444000     -2.84173000      53
