200
cutoff_factor=1.20000000 nneightol=1.20000000 Lattice="27.63645000       0.00000000       0.00000000       0.00000000      29.21064000       0.00000000       0.00000000       0.00000000      28.98537000" Properties=species:S:1:pos:R:3:Z:I:1
H              -1.74816000     -0.77139700     -0.02699350       1
I               0.95914200      1.61137000      1.11823000      53
H              -2.44416000      0.88023200      0.01836610       1
C              -2.57805000     -0.13846900     -0.34931400       6
H              -1.68946000      0.26696400     -2.21112000       1
P               2.64357000     -0.01572420     -1.05459000      15
I               0.89572100     -2.63922000     -0.70115100      53
N              -2.59404000     -0.10452700     -1.84144000       7
H               0.58557100     -1.78134000      2.72675000       1
I               0.45670600      0.91620400     -3.36311000      53
H              -3.52704000     -0.55009000     -0.00248974       1
H              -2.68837000     -1.07011000     -2.23027000       1
H               0.27460200     -3.42999000      2.08455000       1
H              -3.35718000      0.47993800     -2.20371000       1
C               0.16957700     -2.76737000      2.94574000       6
H               1.11720000      3.93016000     -0.00836651       1
H              -0.87961900     -2.68843000      3.23567000       1
I              -2.48964000     -0.25912600      3.55274000      53
P              -1.05606000      2.53772000      3.42083000      15
I              -3.08712000      3.54610000      1.11413000      53
H               3.64964000      1.96382000      2.50816000       1
H               0.22895100     -2.37981000     -4.35861000       1
I               4.77185000     -0.98509500      1.06660000      53
N               1.11538000      4.95591000     -0.19557400       7
H              -0.34047800      4.87957000     -1.72024000       1
I              -3.03774000     -4.13979000      1.14626000      53
I               4.34502000      2.65587000     -1.66170000      53
N               0.92228600     -3.36060000      4.08105000       7
I              -2.58819000     -3.35284000     -3.33351000      53
H               1.91296000     -2.41280000     -4.42578000       1
P              -0.98170200     -5.19959000     -1.12870000      15
H               0.50147400      5.38578000      0.52066200       1
H               1.36048000      4.77882000     -2.28476000       1
C               0.67298600      5.26399000     -1.58796000       6
H               1.92475000     -3.50592000      3.83572000       1
N               1.04091000     -2.84834000     -4.79361000       7
I               4.19289000     -1.47324000     -3.55565000      53
H               2.08072000      5.30202000     -0.00766481       1
H               0.85934900     -2.78741000      4.95013000       1
C               4.56837000      2.44379000      2.85101000       6
H               1.02683000     -3.84517000     -4.48412000       1
I              -2.75588000      4.14944000     -3.48632000      53
H               0.55495200     -4.30008000      4.32817000       1
I               0.98845600      1.85401000      5.80105000      53
H               4.42139000     -3.99042000     -1.72385000       1
H               5.44180000      1.92720000      2.44652000       1
H               4.58143000      3.49726000      2.56441000       1
P              -4.70126000     -2.53176000      3.42873000      15
P              -1.02304000      2.59923000     -5.70584000      15
H              -5.54294000      1.92720000      2.44652000       1
I              -6.21290000     -0.98509500      1.06660000      53
I               0.28703900      5.51514000      3.33088000      53
H               4.23318000      0.83090600     -4.80640000       1
H               4.23134000     -4.95206000      0.52066200       1
H               4.53758000      2.34358000     -4.18443000       1
H               0.69152500      6.34742000     -1.72385000       1
H               3.38939000     -5.45827000     -1.72024000       1
I              -3.28961000      0.30829100     -5.80368000      53
H               4.60348000      1.36168000      4.65044000       1
H               3.80560000      2.82704000      4.77596000       1
N               4.61755000      2.35851000      4.34096000       7
H               1.00478000     -1.70959000     -6.57016000       1
C               4.40286000     -5.07385000     -1.58796000       6
I               0.64274500     -6.79174000      1.11413000      53
C               0.99172800     -2.76306000     -6.28356000       6
H               2.79861000      2.44256000     -5.89890000       1
N               4.60051000      1.77039000     -5.05352000       7
P              -4.71157000      5.13825000     -1.12870000      15
I               4.01691000     -4.82270000      3.33088000      53
I               0.97398900     -6.18840000     -3.48632000      53
H              -5.17415000     -5.03582000     -0.00766481       1
H              -2.31775000     -0.35217000      6.84980000       1
N               4.84525000     -5.38193000     -0.19557400       7
I               4.55063000     -0.98155300      5.64825000      53
I              -6.63972000      2.65587000     -1.66170000      53
H               0.07299120     -3.24303000     -6.62640000       1
C              -6.41637000      2.44379000      2.85101000       6
I              -3.21520000      3.73361000      5.57891000      53
H               7.45770000     -0.55009000     -0.00248974       1
I               1.18858000      4.87186000     -5.58183000      53
I               4.21714000      6.19805000      1.14626000      53
P               6.28348000     -2.53176000      3.42873000      15
C               3.84780000      2.36362000     -6.18883000       6
H               1.86516000     -3.27965000     -6.68804000       1
H               5.81059000     -5.03582000     -0.00766481       1
H              -5.38176000      1.62506000     -5.29885000       1
H              -6.40331000      3.49726000      2.56441000       1
H               5.48960000      2.79405000      4.70879000       1
H              -5.49514000      2.79405000      4.70879000       1
H              -2.67345000     -6.84058000      2.56441000       1
I              -6.79185000     -1.47324000     -3.55565000      53
P              -4.63270000     -2.66912000     -5.71374000      15
I              -3.22152000     -4.21479000      5.77146000      53
H              -6.56335000     -3.99042000     -1.72385000       1
H               5.09035000     -5.55902000     -2.28476000       1
H               5.60298000      1.62506000     -5.29885000       1
I               0.66679000     -2.47512000      7.47286000      53
H               7.62756000      0.47993800     -2.20371000       1
H              -7.33511000      1.96382000      2.50816000       1
H              -3.45527000      6.90785000      2.08455000       1
H              -6.38127000      1.36168000      4.65044000       1
H               4.84707000     -6.40767000     -0.00836651       1
H              -6.44717000      2.34358000     -4.18443000       1
H              -1.80512000      6.83191000      3.83572000       1
N              -6.36719000      2.35851000      4.34096000       7
I               0.64049000      0.99120300     -7.98830000      53
H              -3.17492000      6.03775000      4.32817000       1
H              -2.98670000      1.21643000      7.41071000       1
H               0.88827400      4.13673000      6.90430000       1
C              -3.00524000      0.13300000      7.54661000       6
N              -6.13950000     -5.38193000     -0.19557400       7
P               6.27317000      5.13825000     -1.12870000      15
I              -2.83415000      7.69862000     -0.70115100      53
H               3.95283000      1.70100000     -7.05001000       1
H              -6.75156000      0.83090600     -4.80640000       1
N              -6.38423000      1.77039000     -5.05352000       7
H              -2.70304000      6.49267000     -4.48412000       1
I              -2.90986000     -7.68197000     -1.66170000      53
H              -6.75340000     -4.95206000      0.52066200       1
H               4.26380000      3.34965000     -6.40781000       1
P              -8.34117000     -0.01572420     -1.05459000      15
C               8.40669000     -0.13846900     -0.34931400       6
P               2.59494000      0.00725751      8.00586000      15
H              -5.89439000     -5.55902000     -2.28476000       1
H              -4.01870000     -0.25142100      7.41433000       1
C              -6.58189000     -5.07385000     -1.58796000       6
N              -2.80758000      6.97724000      4.08105000       7
H               8.54059000      0.88023200      0.01836610       1
N               8.39070000     -0.10452700     -1.84144000       7
I              -6.43411000     -0.98155300      5.64825000      53
H               8.29637000     -1.07011000     -2.23027000       1
I               0.51466500     -6.60423000      5.57891000      53
I               7.89762000      3.54610000      1.11413000      53
C              -2.68650000     -7.89405000      2.85101000       6
C              -3.56029000      7.57047000      2.94574000       6
H              -6.13767000     -6.40767000     -0.00836651       1
P               2.55361000      7.80607000      3.42873000      15
P               2.67381000     -7.80011000      3.42083000      15
H              -1.81307000     -8.41064000      2.44652000       1
P               6.35204000     -2.66912000     -5.71374000      15
N               0.98260100      5.10232000      7.29312000       7
H               0.21946100      5.68679000      6.93085000       1
H               1.88718000      5.47381000      6.92344000       1
I               7.94700000     -4.13979000      1.14626000      53
I               4.66668000      6.98500000     -3.33351000      53
H              -1.76527000     -7.54379000      4.70879000       1
H              -7.17915000      2.82704000      4.77596000       1
I              -6.96783000     -4.82270000      3.33088000      53
H              -3.07517000      0.17892700     -8.61390000       1
I              -2.61750000     -3.59548000     -8.01634000      53
I               8.49510000     -0.25912600      3.55274000      53
I               4.91845000     -5.46597000     -5.58183000      53
H               3.94933000     -4.65105000      6.93085000       1
I              -6.76761000      6.19805000      1.14626000      53
H              -1.81691000      7.92504000     -4.42578000       1
I               4.32097000     -1.66075000     -8.02043000      53
H              -1.49592000      0.09516820     -9.14223000       1
H              -1.59751000      0.17102700      9.12690000       1
H               9.23658000     -0.77139700     -0.02699350       1
N              -2.68896000      7.48950000     -4.79361000       7
N              -2.56285000     -0.17508300      8.93899000       7
I               4.03335000      6.12305000      5.77146000      53
I              -2.53467000      4.14589000     -8.06796000      53
H              -2.71730000     -7.99426000     -4.18443000       1
H              -3.60524000     -8.37402000      2.50816000       1
N              -2.63732000     -7.97933000      4.34096000       7
I               1.04198000      9.35274000      1.06660000      53
H              -2.87052000      7.55043000      4.95013000       1
H              -4.60949000      7.64940000      3.23567000       1
H              -7.59535000     -5.45827000     -1.72024000       1
H              -3.14430000      8.55650000      2.72675000       1
H               1.28571000     -9.45761000      0.01836610       1
H              -3.44928000     -7.51080000      4.77596000       1
H              -2.45944000     -1.27668000     -9.14293000       1
H              -2.56103000     -1.20082000      9.12620000       1
H               9.29528000      0.26696400     -2.21112000       1
I               0.46302300      8.86460000     -3.55565000      53
P              -1.03466000     -5.14671000      8.07998000      15
I               8.39655000     -3.35284000     -3.33351000      53
I               7.69514000      0.30829100     -5.80368000      53
N              -2.46127000     -0.25094200     -9.33014000       7
H              -3.50092000      7.95802000     -4.35861000       1
C              -7.13694000      2.36362000     -6.18883000       6
I               8.22886000      4.14944000     -3.48632000      53
H              -6.72094000      3.34965000     -6.40781000       1
I               4.47237000      2.56763000      8.43341000      53
I              -6.06629000     -5.46597000     -5.58183000      53
H              -1.86471000      7.05819000     -6.68804000       1
P               2.62217000      7.66871000     -5.71374000      15
H              -2.99107000     -6.98818000     -6.40781000       1
I               4.68901000     -8.72647000      1.11823000      53
P               2.70683000     -7.73861000     -5.70584000      15
I              -6.31806000      6.98500000     -3.33351000      53
H              -5.36769000     -4.86403000      6.92344000       1
H              -7.03191000      1.70100000     -7.05001000       1
H               0.37268500     -9.85790000     -2.20371000       1
N               4.71247000     -5.23552000      7.29312000       7
H               5.61705000     -4.86403000      6.92344000       1
H              -3.17675000      0.25478600      9.65523000       1
H               6.96604000     -0.25142100      7.41433000       1
