200
cutoff_factor=1.20000000 nneightol=1.20000000 Lattice="28.04847000       0.00000000       0.00000000       0.00000000      28.53308000       0.00000000       0.00000000       0.00000000      29.02041000" Properties=species:S:1:pos:R:3:Z:I:1
H               0.15094700     -0.03929460      0.04731310       1
N               0.13433700     -1.05222000     -0.18413900       7
H              -0.81302200     -1.41684000      0.04625980       1
H               0.80947900     -1.52524000      0.43883300       1
C               0.48114500     -1.29127000     -1.61924000       6
H              -0.25384200     -0.77733700     -2.24311000       1
H               1.48227000     -0.89483400     -1.80341000       1
I              -0.08544510      2.30307000      1.39879000      53
H               0.45507700     -2.36716000     -1.80620000       1
H              -2.36766000      1.77800000      2.50577000       1
I              -3.08409000     -1.91242000      1.39672000      53
I               3.81513000      0.10994000      0.84965200      53
I               0.69402300      2.42304000     -3.08491000      53
I               0.74614900     -1.48714000      3.71044000      53
I              -3.49071000      1.52908000     -1.47684000      53
H              -3.37854000      0.43152300      2.48803000       1
P              -1.36065000      3.91312000     -1.13840000      15
P               2.34538000      1.32257000      3.39063000      15
H               3.37453000      2.55289000     -1.12833000       1
N              -3.12232000      1.28539000      3.02817000       7
H              -1.74131000      0.22549300      4.21514000       1
I               0.19610100     -4.94694000      0.79931800      53
I              -2.94469000     -2.81720000     -3.04519000      53
C              -2.60290000      0.87892600      4.36490000       6
C               3.67394000      3.57324000     -0.87854300       6
H               2.86432000      4.27148000     -1.09613000       1
P              -5.04804000     -1.27841000     -1.15288000      15
P              -1.37899000     -3.93656000      3.38588000      15
H              -3.93744000      1.90461000      3.14027000       1
H               3.96809000      3.63917000      0.17020000       1
H              -2.74075000      1.85258000     -4.34874000       1
H               3.52344000     -2.51084000      3.37809000       1
I               4.09340000     -0.60600300     -3.71015000      53
H              -2.30834000      1.77634000      4.91169000       1
H              -3.39318000      0.34834300      4.89859000       1
I               0.06423740     -1.03977000     -5.92029000      53
I               4.36275000     -4.08606000     -0.67147500      53
H              -2.17356000     -5.45384000     -1.52284000       1
P               5.90116000     -1.27841000     -1.15288000      15
P               2.30350000      1.22084000     -5.59995000      15
I               0.95784300     -4.95141000     -3.65733000      53
H               4.17025000     -4.28025000      1.84176000       1
H              -0.18446500      5.41096000      3.20598000       1
H               1.49553000      5.34812000      3.01241000       1
I               0.75539800      6.27059000     -0.67147500      53
H              -2.16383000      0.14886500     -5.97342000       1
I               3.72361000      4.15949000      3.06554000      53
H               0.56290000      6.07640000      1.84176000       1
H              -5.31238000      3.27904000     -1.54064000       1
I               0.71467900      2.38206000      5.94064000      53
I              -3.41125000      5.40971000      0.79931800      53
H               0.93562600     -1.28841000      6.25263000       1
C              -2.85581000      2.04047000     -5.41772000       6
C               4.41091000     -3.11693000      3.56811000       6
N               4.84833000      3.93849000     -1.71935000       7
H               4.61811000      3.86899000     -2.73321000       1
N               0.64044000      5.93103000      2.87331000       7
H              -1.96617000      2.53427000     -5.81481000       1
H               5.63682000      3.27904000     -1.54064000       1
H               5.30055000     -2.62312000      3.17102000       1
N               4.24779000     -4.42562000      2.87331000       7
H               3.42288000     -4.94569000      3.20598000       1
N              -3.01893000      0.73177700     -6.11252000       7
H               0.28930600      5.50574000     -4.08724000       1
P               2.24670000     -6.44353000     -1.13840000      15
P              -1.31399000     -3.87669000     -5.59521000      15
H              -3.84383000      0.21170400     -5.77986000       1
H              -5.64865000     -2.62312000      3.17102000       1
I              -2.64951000      5.40524000     -3.65733000      53
I               4.61721000      0.24784900      5.32850000      53
N              -2.49352000     -6.41816000     -1.71935000       7
I              -2.98846000     -2.73435000      5.90092000      53
I              -7.13407000      0.10994000      0.84965200      53
H              -3.74328000      2.64656000     -5.60774000       1
H               4.52596000     -3.30481000      4.63710000       1
H               5.16829000      4.90281000     -1.52284000       1
H               4.98149000     -3.42292000     -4.07415000       1
H              -1.70503000     -7.07761000     -1.54064000       1
H               3.89665000     -4.85091000     -4.08724000       1
H               1.94118000      5.38289000     -4.77069000       1
N               1.16585000     -1.21891000      7.26649000       7
N              -6.10087000      3.93849000     -1.71935000       7
H               3.35239000     -3.29464000     -5.84556000       1
H              -3.37376000     -6.71748000      0.17020000       1
H              -2.72374000     -6.48766000     -2.73321000       1
H               1.48581000     -0.25458200      7.46299000       1
H              -4.47754000     -6.08517000     -1.09613000       1
C               1.07959000      6.03632000     -4.62094000       6
I              -3.19643000      4.59325000      5.27568000      53
H              -5.78091000      4.90281000     -1.52284000       1
I               7.45849000      1.52908000     -1.47684000      53
H               5.10288000     -5.00853000      3.01241000       1
C              -3.66792000     -6.78341000     -0.87854300       6
I              -6.58646000     -4.08606000     -0.67147500      53
I              -3.61825000     -6.19716000      3.06554000      53
I               4.42863000      3.67025000     -5.27539000      53
I              -6.85580000     -0.60600300     -3.71015000      53
I               0.41091700     -5.76340000      5.27568000      53
H              -3.09647000      0.87715000     -7.14408000       1
C               4.68693000     -4.32033000     -4.62094000       6
H              -6.98111000      3.63917000      0.17020000       1
H              -6.33109000      3.86899000     -2.73321000       1
H               7.01176000      1.90461000      3.14027000       1
H               1.95434000     -1.87835000      7.44519000       1
H               7.57066000      0.43152300      2.48803000       1
H              -0.81816700     -0.88591100      7.88971000       1
H              -5.96771000     -3.42292000     -4.07415000       1
H              -7.57468000      2.55289000     -1.12833000       1
C              -6.53829000     -3.11693000      3.56811000       6
C               0.80356200      7.23972000      3.56811000       6
C              -7.27527000      3.57324000     -0.87854300       6
H               1.37414000      6.93373000     -4.07415000       1
I               7.86511000     -1.91242000      1.39672000      53
H              -6.77895000     -4.28025000      1.84176000       1
N               4.16752000     -3.91386000     -5.95766000       7
C              -0.00854823     -1.58416000      8.10729000       6
H              -5.84632000     -5.00853000      3.01241000       1
I               0.59839500      3.24498000     -7.58912000      53
I              -6.33199000      0.24784900      5.32850000      53
H              -0.30795800     -2.60450000      7.85751000       1
H               0.91861600      7.05184000      4.63710000       1
N               7.82689000      1.28539000      3.02817000       7
H               1.69320000      7.73353000      3.17102000       1
N              -6.70141000     -4.42562000      2.87331000       7
H              -7.42576000     -2.51084000      3.37809000       1
H              -0.08391070      7.84581000      3.37809000       1
H               0.30394700      5.58892000     -6.49780000       1
H              -6.42324000     -3.30481000      4.63710000       1
H               4.11445000      2.83210000      7.17963000       1
H               3.40553000      4.42192000      6.74273000       1
H              -5.40068000     -4.97376000     -4.77069000       1
H              -3.15227000      7.98949000     -1.80620000       1
N               0.56016800      6.44279000     -5.95766000       7
P              -4.98634000      6.42009000      3.38588000      15
H              -3.96733000     -7.80376000     -1.12833000       1
H               4.92217000     -3.42126000     -6.48006000       1
H               5.54853000     -4.97376000     -4.77069000       1
P              -1.38867000      3.92084000      7.83295000      15
I              -7.22559000      4.15949000      3.06554000      53
I              -2.92709000      1.11319000      8.31436000      53
I               3.52190000     -8.05358000      1.39879000      53
C              -6.26227000     -4.32033000     -4.62094000       6
I              -3.74481000     -2.89619000     -7.58704000      53
H               6.47167000     -6.08517000     -1.09613000       1
I               0.11663300     -8.82757000     -1.47684000      53
H               0.30872500     -1.56008000     -8.81563000       1
H               3.91130000     -4.76773000     -6.49780000       1
I              -2.91322000     -6.68640000     -5.27539000      53
H               7.55602000      0.34834300      4.89859000       1
I               8.00451000     -2.81720000     -3.04519000      53
H              -0.33009400     -8.45204000      3.14027000       1
H               1.23969000     -8.57865000      2.50577000       1
I               3.87859000      0.21046000     -8.18652000      53
H               8.58154000      1.77800000      2.50577000       1
I               3.77600000     -3.62832000      7.50899000      53
I              -6.52057000      3.67025000     -5.27539000      53
H               7.10537000      0.21170400     -5.77986000       1
H              -0.25495900      7.06201000     -5.84556000       1
H              -8.08488000      4.27148000     -1.09613000       1
I               4.39716000      7.53945000     -3.04519000      53
H              -2.79787000      8.83141000      0.43883300       1
H               0.28561000     -1.51822000      9.15603000       1
C               4.14051000      3.90799000      7.36660000       6
I               7.53795000      5.40971000      0.79931800      53
P              -8.60382000      1.32257000      3.39063000      15
P               5.96287000      6.42009000      3.38588000      15
P              -5.04314000     -1.24428000      7.84744000      15
P               2.29381000      9.07824000     -1.15288000      15
C               8.34630000      0.87892600      4.36490000       6
H               8.20845000      1.85258000     -4.34874000       1
H              -7.05255000     -4.85091000     -4.08724000       1
H              -6.02703000     -3.42126000     -6.48006000       1
H               7.20592000      2.64656000     -5.60774000       1
H              -0.13593200     -7.71009000     -5.60774000       1
I               4.30137000     -7.93361000     -3.08491000      53
H              -7.52632000     -4.94569000      3.20598000       1
I               4.25776000      8.44423000      1.39672000      53
N               0.48503300     -9.07126000      3.02817000       7
H               1.31482000      6.93539000     -6.48006000       1
H               0.86659500     -8.50407000     -4.34874000       1
I               0.15575800     -5.08931000     -8.13618000      53
H              -2.20022000     -6.05223000      7.18243000       1
H              -9.46693000     -0.89483400     -1.80341000       1
C              -3.12620000      9.06538000     -1.61924000       6
H              -3.93633000     -5.93473000      6.74273000       1
H               5.14164000      4.30442000      7.18243000       1
N              -6.78168000     -3.91386000     -5.95766000       7
H              -2.12508000      9.46182000     -1.80341000       1
P              -4.92133000      6.47996000     -5.59521000      15
H               1.64118000     -7.82238000     -5.81481000       1
P               5.90606000     -1.24428000      7.84744000      15
N              -3.47301000      9.30443000     -0.18413900       7
C               8.09339000      2.04047000     -5.41772000       6
C               0.75154100     -8.31618000     -5.41772000       6
H               1.29900000     -8.58031000      4.91169000       1
H              -4.42037000      8.93981000      0.04625980       1
C               7.28128000     -6.78341000     -0.87854300       6
C               0.01456650     -1.62602000     -9.86438000       6
I              -2.86120000      8.86951000      3.71044000      53
N               7.93027000      0.73177700     -6.11252000       7
