200
cutoff_factor=1.20000000 nneightol=1.20000000 Lattice="28.21949000       0.00000000       0.00000000       0.00000000      29.15780000       0.00000000       0.00000000       0.00000000      28.82826000" Properties=species:S:1:pos:R:3:Z:I:1
I               0.12643200     -1.00550000     -0.38015500      53
H               1.04126000      1.41763000      1.65469000       1
P              -2.22937000      1.10595000     -0.77979100      15
H               2.30034000      0.13992400      1.59966000       1
C               2.11425000      1.21384000      1.67173000       6
H               2.61719000      1.74421000      0.86078800       1
H              -0.89943500     -2.37083000      2.43263000       1
I              -0.21541000      3.56495000     -0.40537500      53
H               2.51944000      0.89623600     -2.60717000       1
I              -2.76285000      1.18224000      2.42212000      53
H              -2.72557000     -2.66536000      0.83513900       1
P               2.11715000     -3.42795000     -0.74624200      15
H               0.67352000      0.56703900     -4.17195000       1
C              -1.87807000     -2.73394000      2.75459000       6
N               2.66328000      1.69809000      2.96426000       7
H              -2.49543000     -1.90588000      3.10928000       1
I              -1.74681000      1.03150000     -3.97276000      53
N              -2.56108000     -3.36340000      1.58458000       7
H               2.19400000      1.21856000      3.75938000       1
H               1.70162000     -0.75358800     -4.18541000       1
I              -4.26396000     -1.39938000     -1.07931000      53
C               2.67214000      1.04536000     -3.67848000       6
N               1.64333000      0.26190600     -4.41267000       7
H              -1.98591000     -4.12935000      1.17577000       1
H               2.53327000      2.72351000      3.05089000       1
H               3.68961000      1.51637000      3.00260000       1
I               4.67487000     -1.39938000     -1.07931000      53
H               2.55479000      2.09997000     -3.93788000       1
I               0.66334400     -0.54400600      5.09150000      53
I               2.87299000     -3.64573000      2.39772000      53
H              -1.77038000     -3.48779000      3.53583000       1
H              -1.88502000      4.87682000      1.17577000       1
H              -3.37846000     -2.80991000     -3.10965000       1
I               1.72193000     -3.24667000     -3.96787000      53
H              -3.49756000     -3.72528000      1.86028000       1
H               3.65962000      0.68615000     -3.97722000       1
I              -0.31629800     -5.44122000     -0.40537500      53
H              -1.25015000     -3.22186000     -4.24994000       1
I               4.31372000      3.19111000     -1.24130000      53
H              -1.56986000      4.46212000     -3.11015000       1
H               1.74622000      0.35327800     -5.43808000       1
H              -1.67075000     -4.54405000     -3.11015000       1
I              -4.62510000      3.19111000     -1.24130000      53
C              -1.93810000     -4.04398000     -4.04343000       6
P               2.21804000      5.57822000     -0.74624200      15
P              -2.01361000      1.31743000      5.56441000      15
N              -3.30933000     -3.48013000     -3.90258000       7
H              -5.24921000      1.51637000      3.00260000       1
N              -2.46019000      5.64277000      1.58458000       7
I              -0.05122260      3.85548000      5.28374000      53
H              -3.39668000      5.28089000      1.86028000       1
I               2.97388000      5.36045000      2.39772000      53
H              -6.32163000      1.74421000      0.86078800       1
H              -5.27920000      0.68615000     -3.97722000       1
C              -1.83721000      4.96219000     -4.04343000       6
H              -3.58927000     -2.97796000     -4.77538000       1
H              -1.84149000      4.24950000     -4.87061000       1
I               6.17597000      1.18224000      2.42212000      53
H              -1.66949000      5.51838000      3.53583000       1
H               6.21325000     -2.66536000      0.83513900       1
H              -6.63848000      0.13992400      1.59966000       1
P               6.70946000      1.10595000     -0.77979100      15
H               5.44126000     -3.72528000      1.86028000       1
P               2.40685000     -3.25101000      5.54207000      15
H              -2.62468000      6.34081000      0.83513900       1
H              -3.99335000     -4.23713000     -3.72909000       1
H               5.56037000     -2.80991000     -3.10965000       1
H              -6.41938000      0.89623600     -2.60717000       1
C              -1.77719000      6.27223000      2.75459000       6
H              -1.94238000     -4.75667000     -4.87061000       1
H              -0.79854600      6.63534000      2.43263000       1
C              -6.82457000      1.21384000      1.67173000       6
N              -6.27554000      1.69809000      2.96426000       7
H              -3.89246000      4.76904000     -3.72909000       1
I               1.82282000      5.75950000     -3.96787000      53
I              -3.90382000     -1.32026000      5.93786000      53
H              -1.14926000      5.78431000     -4.24994000       1
I               4.21283000     -5.81506000     -1.24130000      53
C              -6.26668000      1.04536000     -3.67848000       6
I              -0.15211100     -5.15070000      5.28374000      53
N               6.37775000     -3.36340000      1.58458000       7
H               2.43238000     -6.28266000      3.05089000       1
H               6.44339000     -1.90588000      3.10928000       1
I              -6.06583000     -3.64573000      2.39772000      53
N              -3.20844000      5.52604000     -3.90258000       7
H               4.94548000     -4.23713000     -3.72909000       1
I              -4.72599000     -5.81506000     -1.24130000      53
H              -6.40555000      2.72351000      3.05089000       1
P              -2.34225000      1.00793000     -7.17109000      15
H               2.07486000      0.66277600      7.29742000       1
H              -3.27757000      6.19626000     -3.10965000       1
P              -6.82168000     -3.42795000     -0.74624200      15
N               5.62949000     -3.48013000     -3.90258000       7
I               0.33470500     -0.85350400     -7.64400000      53
H               2.51631000     -7.26196000      0.86078800       1
H               5.34956000     -2.97796000     -4.77538000       1
H              -6.38404000      2.09997000     -3.93788000       1
H              -6.74483000      1.21856000      3.75938000       1
H               0.94036900     -7.58854000      1.65469000       1
H               5.54215000      5.28089000      1.86028000       1
H               5.04637000      4.76904000     -3.72909000       1
I               5.03500000     -1.32026000      5.93786000      53
I               0.22732100      8.00067000     -0.38015500      53
C               7.06075000     -2.73394000      2.75459000       6
H              -2.39455000      7.10029000      3.10928000       1
I               4.38196000      3.20228000      6.07674000      53
H               6.95291000     -4.12935000      1.17577000       1
I              -4.23246000     -1.62976000     -6.79764000      53
H              -7.89757000      1.41763000      1.65469000       1
C               2.01337000     -7.79233000      1.67173000       6
I              -4.55686000      3.20228000      6.07674000      53
I              -0.37986200      3.54598000     -7.45176000      53
P              -2.33026000     -7.90022000     -0.77979100      15
I               7.19202000      1.03150000     -3.97276000      53
P               2.07821000     -3.56051000     -7.19343000      15
N               2.56239000     -7.30808000      2.96426000       7
I               4.05332000      2.89278000     -6.65876000      53
H               2.45390000     -6.90620000     -3.93788000       1
I              -5.96494000      5.36045000      2.39772000      53
P               2.50774000      5.75516000      5.54207000      15
H              -7.23720000     -0.75358800     -4.18541000       1
I               4.70636000     -1.62976000     -6.79764000      53
H              -3.48838000      6.02821000     -4.77538000       1
N              -7.29549000      0.26190600     -4.41267000       7
N               1.97197000      0.57140400      8.32284000       7
H               7.05380000      4.87682000      1.17577000       1
H               1.00216000      0.87653700      8.56355000       1
I              -2.86374000     -7.82393000      2.42212000      53
H               7.16845000     -3.48779000      3.53583000       1
H               8.03939000     -2.37083000      2.43263000       1
N               6.47864000      5.64277000      1.58458000       7
I              -4.16307000      7.60679000     -1.07931000      53
I              -4.88550000      2.89278000     -6.65876000      53
P              -6.72079000      5.57822000     -0.74624200      15
H               2.03026000     -0.44409000      8.55009000       1
H               3.58873000     -7.48981000      3.00260000       1
I              -7.21689000     -3.24667000     -3.96787000      53
H               2.41855000     -8.10994000     -2.60717000       1
N               5.73038000      5.52604000     -3.90258000       7
I              -8.81239000     -1.00550000     -0.38015500      53
H               2.09311000     -7.78762000      3.75938000       1
H               5.66126000      6.19626000     -3.10965000       1
I              -1.41817000      1.34100000      8.76274000      53
P               6.92522000      1.31743000      5.56441000      15
H               6.31414000      6.34081000      0.83513900       1
H              -3.26063000     -2.66846000      7.96013000       1
H              -0.92150900     -2.91237000      8.48556000       1
H              -7.19260000      0.35327800     -5.43808000       1
C               7.00073000     -4.04398000     -4.04343000       6
I               4.77576000      7.60679000     -1.07931000      53
I              -1.84770000     -7.97467000     -3.97276000      53
H               7.26808000     -4.54405000     -3.11015000       1
I               9.06526000     -1.00550000     -0.38015500      53
C               2.57125000     -7.96081000     -3.67848000       6
H               7.36897000      4.46212000     -3.11015000       1
P              -6.53197000     -3.25101000      5.54207000      15
H              -1.61374000     -4.44717000      7.86489000       1
H               1.86536000      0.90905900     -8.97612000       1
H              -1.51285000      4.55900000      7.86489000       1
I              -0.48075100     -5.46019000     -7.45176000      53
H               2.19945000     -8.86625000      1.59966000       1
H              -8.26530000      0.56703900     -4.17195000       1
P               2.17910000      5.44566000     -7.19343000      15
H               7.68867000     -3.22186000     -4.24994000       1
H               5.45045000      6.02821000     -4.77538000       1
H               1.80251000      8.25258000     -4.18541000       1
I               4.28107000     -5.80389000      6.07674000      53
H               0.57263100     -8.43913000     -4.17195000       1
I               8.72341000      3.56495000     -0.40537500      53
I               2.05057000     -2.93717000      8.76763000      53
H              -6.50644000     -6.28266000      3.05089000       1
C               7.10162000      4.96219000     -4.04343000       6
H               2.88343000      2.40947000      8.79762000       1
H               2.40123000      9.14610000      1.59966000       1
C              -1.60946000     -3.73448000      8.69207000       6
H               7.09733000      4.24950000     -4.87061000       1
I              -4.65775000     -5.80389000      6.07674000      53
C               3.00078000      1.35486000      9.05702000       6
H               3.98826000      0.99564800      8.75828000       1
H              -5.35010000     -7.48981000      3.00260000       1
P              -2.11449000     -7.68874000      5.56441000      15
I              -8.27548000     -0.54400600      5.09150000      53
H              -6.42252000     -7.26196000      0.86078800       1
H               6.99644000     -4.75667000     -4.87061000       1
H               7.26933000      5.51838000      3.53583000       1
P               6.59658000      1.00793000     -7.17109000      15
I              -9.15423000      3.56495000     -0.40537500      53
N              -2.98069000     -3.17063000      8.83292000       7
I               3.95243000     -6.11339000     -6.65876000      53
H               3.55874000     -8.32002000     -3.97722000       1
I               0.76423300      8.46217000      5.09150000      53
C               7.16164000      6.27223000      2.75459000       6
N               1.54244000     -8.74427000     -4.41267000       7
I              -7.11600000      5.75950000     -3.96787000      53
I               0.02554330    -10.01170000     -0.38015500      53
H              -6.86396000      0.66277600      7.29742000       1
H              -4.95056000      0.99564800      8.75828000       1
H               5.67820000     -2.66846000      7.96013000       1
N              -6.37643000     -7.30808000      2.96426000       7
N               2.33464000      1.38860000     -9.77124000       7
