200
cutoff_factor=1.20000000 nneightol=1.20000000 Lattice="28.72233000       0.00000000       0.00000000       0.00000000      28.80488000       0.00000000       0.00000000       0.00000000      29.18819000" Properties=species:S:1:pos:R:3:Z:I:1
H              -0.08599710      0.51860700     -1.27259000       1
I              -1.47823000     -0.41825400      0.63764500      53
N               0.58907900      1.05373000     -1.86322000       7
H               1.07292000      1.70675000     -1.20897000       1
H               1.28269000      0.39952600     -2.25434000       1
H               0.79790300      0.86458400      2.81876000       1
P               0.23835800     -3.13927000      0.70701900      15
I               2.98830000     -1.38729000      0.78151100      53
C              -0.12443200      1.80698000     -2.93747000       6
H              -0.84652300      2.47884000     -2.46776000       1
I               2.02176000      3.08038000      0.73188400      53
H              -0.63467400      1.08945000     -3.58154000       1
I               0.44642600     -3.10746000     -2.46896000      53
C               0.67515600      0.99317200      3.89664000       6
H               0.61194700      2.37711000     -3.50629000       1
H              -1.30163000      1.72918000      3.74136000       1
H               0.35905200      0.05570650      4.35980000       1
P              -4.15609000      1.36173000      0.70150600      15
N              -0.38565700      2.01867000      4.13310000       7
H              -0.12535500      2.94027000      3.73257000       1
I              -2.44457000      4.08869000      0.65555800      53
H               1.60481000      1.34742000      4.34777000       1
P               4.74391000      1.36173000      0.70150600      15
I               0.00162479     -3.24419000      3.89294000      53
H              -2.89459000     -3.13294000     -2.83658000       1
I              -4.25332000      1.53136000     -2.48350000      53
H              -2.65301000     -2.70310000      3.57760000       1
H               3.09391000     -3.52577000     -2.29522000       1
H              -4.13023000     -1.83297000     -2.75667000       1
H              -3.99884000     -2.45441000      2.57765000       1
I               4.64668000      1.53136000     -2.48350000      53
I              -2.50311000     -4.84532000      0.65555800      53
H              -3.70373000     -1.42508000      3.87008000       1
H              -0.54748500      2.17863000      5.15108000       1
N              -3.65109000     -2.41539000      3.55700000       7
I              -4.00343000      1.25139000      3.89782000      53
C              -3.94054000     -2.87622000     -3.01925000       6
H               4.33794000     -3.60723000     -1.15610000       1
H               4.76977000     -1.83297000     -2.75667000       1
P               0.29689600      5.79474000      0.70701900      15
H              -4.56207000     -3.60723000     -1.15610000       1
N               4.10186000     -3.74506000     -2.15795000       7
I              -1.70668000     -0.57238400     -5.72263000      53
H               4.90116000     -2.45441000      2.57765000       1
I              -5.91171000     -1.38729000      0.78151100      53
I               1.96322000     -5.85363000      0.73188400      53
H               3.39060000     -2.94145000      4.40783000       1
I               0.50496400      5.82655000     -2.46896000      53
I               4.89657000      1.25139000      3.89782000      53
I               2.79997000     -1.11098000     -5.68803000      53
N              -4.79814000     -3.74506000     -2.15795000       7
H               4.31275000      4.18315000     -2.37711000       1
P               0.26397000     -3.03979000     -5.69561000      15
C               4.95946000     -2.87622000     -3.01925000       6
H              -4.20138000     -3.06057000     -4.06387000       1
H               5.19627000     -1.42508000      3.87008000       1
H              -4.58725000      4.18315000     -2.37711000       1
H               3.15245000      5.40824000     -2.29522000       1
N               5.24891000     -2.41539000      3.55700000       7
H               4.25421000     -4.75086000     -2.37711000       1
I               0.06016300      5.68982000      3.89294000      53
H               4.69862000     -3.06057000     -4.06387000       1
H              -0.90506100     -6.45517000     -2.46776000       1
N               4.16040000      5.18895000     -2.15795000       7
H               4.39647000      5.32678000     -1.15610000       1
I               2.24389000      3.37399000     -5.75429000      53
H              -2.83606000      5.80107000     -2.83658000       1
H              -4.64579000     -4.75086000     -2.37711000       1
H              -0.18389400     -5.99374000      3.73257000       1
H              -4.50353000      5.32678000     -1.15610000       1
C               4.42600000     -3.28772000      4.44555000       6
C              -4.47400000     -3.28772000      4.44555000       6
H              -5.80609000     -3.52577000     -2.29522000       1
P              -4.17782000      1.43726000     -5.71215000      15
I              -2.17546000      3.91366000     -5.77771000      53
H               6.00541000     -3.13294000     -2.83658000       1
N              -4.73960000      5.18895000     -2.15795000       7
H              -4.40176000     -4.31604000      4.08413000       1
H               1.01439000     -7.22726000     -1.20897000       1
H               4.49824000     -4.31604000      4.08413000       1
I               2.15659000     -0.66984800      7.10451000      53
H               0.55340800     -6.55690000     -3.50629000       1
I               7.42177000     -0.41825400      0.63764500      53
H              -4.08400000     -3.21301000      5.46316000       1
H              -4.34323000      4.61797000      4.08413000       1
P               4.72218000      1.43726000     -5.71215000      15
H               0.48394900      1.37050000     -7.41906000       1
I              -6.87824000      3.08038000      0.73188400      53
I              -2.32406000     -1.20952000      7.12794000      53
H              -2.59447000      6.23091000      3.57760000       1
H              -5.50940000     -2.94145000      4.40783000       1
H               4.55678000      4.61797000      4.08413000       1
I               6.45543000      4.08869000      0.65555800      53
H               6.24699000     -2.70310000      3.57760000       1
C              -0.18297100     -7.12703000     -2.93747000       6
C              -3.88200000      6.05779000     -3.01925000       6
P               0.15422900     -3.14625000      7.17007000      15
H              -7.61731000      0.39952600     -2.25434000       1
H               4.81600000     -3.21301000      5.46316000       1
I              -2.23400000     -5.02035000     -5.77771000      53
H              -3.94030000      6.47960000      2.57765000       1
I               6.39689000     -4.84532000      0.65555800      53
N              -0.44419500     -6.91534000      4.13310000       7
I              -1.70944000      3.23952000      7.19420000      53
H              -7.82708000      1.70675000     -1.20897000       1
N               0.53054000     -7.88028000     -1.86322000       7
I               3.04683000      7.54672000      0.78151100      53
H               3.44914000      5.99256000      4.40783000       1
P               0.32250800      5.89422000     -5.69561000      15
H              -5.74755000      5.40824000     -2.29522000       1
H              -1.36017000     -7.20483000      3.74136000       1
N              -3.59255000      6.51862000      3.55700000       7
H              -4.14284000      5.87344000     -4.06387000       1
I               2.18535000     -5.56002000     -5.75429000      53
I              -6.10003000     -1.11098000     -5.68803000      53
C               5.01800000      6.05779000     -3.01925000       6
C              -4.41547000      5.64629000      4.44555000       6
P              -4.24544000      1.31072000      7.18661000      15
C               4.48453000      5.64629000      4.44555000       6
H              -0.14453500     -8.41540000     -1.27259000       1
H              -0.60602400     -6.75538000      5.15108000       1
I               2.68391000      3.77812000      7.15959000      53
C               0.09394430      1.29579000     -8.43667000       6
H               4.95970000      6.47960000      2.57765000       1
H               0.73936400     -8.06943000      2.81876000       1
H               4.75716000      5.87344000     -4.06387000       1
N              -8.31092000      1.05373000     -1.86322000       7
H              -7.29519000      1.34742000      4.34777000       1
H              -8.10210000      0.86458400      2.81876000       1
H              -4.07169000      7.10104000     -2.75667000       1
H               7.59837000      1.72918000      3.74136000       1
H              -0.69321300     -7.84456000     -3.58154000       1
I              -1.41969000      8.51576000      0.63764500      53
P               4.65456000      1.31072000      7.18661000      15
H              -0.94144900      1.64205000     -8.47439000       1
P              -4.21463000     -7.57228000      0.70150600      15
H               8.05348000      2.47884000     -2.46776000       1
H               0.16618500      0.26746800     -8.79809000       1
H               6.06394000      5.80107000     -2.83658000       1
C               0.61661800     -7.94084000      3.89664000       6
H              -4.02546000      5.72100000      5.46316000       1
H               1.54627000     -7.58659000      4.34777000       1
H               1.22416000     -8.53448000     -2.25434000       1
H               0.18921200      1.28993000      8.81835000       1
I              -4.31186000     -7.40265000     -2.48350000      53
H               8.81400000      0.51860700     -1.27259000       1
P               4.68537000     -7.57228000      0.70150600      15
H               3.96193000     -2.17188000     -7.73114000       1
H               4.82831000      7.10104000     -2.75667000       1
I               4.58814000     -7.40265000     -2.48350000      53
H               8.26533000      1.08945000     -3.58154000       1
H              -8.98600000      0.51860700     -1.27259000       1
I              -6.93678000     -5.85363000      0.73188400      53
N               5.30745000      6.51862000      3.55700000       7
C              -8.22484000      0.99317200      3.89664000       6
H              -3.64519000      7.50893000      3.87008000       1
I               2.62537000     -5.15589000      7.15959000      53
I               7.19332000     -0.57238400     -5.72263000      53
P               0.21276700      5.78776000      7.17007000      15
H              -5.45086000      5.99256000      4.40783000       1
P              -8.66164000     -3.13927000      0.70701900      15
H               4.87454000      5.72100000      5.46316000       1
H              -8.28805000      2.37711000     -3.50629000       1
I              -8.45357000     -3.10746000     -2.46896000      53
I              -1.76798000     -5.69449000      7.19420000      53
I              -6.65611000      3.37399000     -5.75429000      53
H              -4.93808000     -2.17188000     -7.73114000       1
C               8.77557000      1.80698000     -2.93747000       6
H              -2.78578000     -3.00308000     -8.53445000       1
I              -1.53677000     -9.35226000      0.63764500      53
I               0.50598200     -3.09911000     -8.98440000      53
I              -4.06197000     -7.68261000      3.89782000      53
H              -0.02745890      9.45262000     -1.27259000       1
H               6.30553000      6.23091000      3.57760000       1
I              -5.85317000      7.54672000      0.78151100      53
H               0.86421900      3.15843000     -9.01214000       1
H              -8.54095000      0.05570650      4.35980000       1
N               0.91685600      2.16812000     -9.32522000       7
C              -9.02443000      1.80698000     -2.93747000       6
N               8.51434000      2.01867000      4.13310000       7
H               1.91494000      1.88041000     -9.30462000       1
P               9.13836000     -3.13927000      0.70701900      15
I               6.72454000      3.91366000     -5.77771000      53
H               1.34123000      9.33354000     -2.25434000       1
N               9.48908000      1.05373000     -1.86322000       7
I               6.57594000     -1.20952000      7.12794000      53
I              -6.74341000     -0.66984800      7.10451000      53
I               4.83803000     -7.68261000      3.89782000      53
H               0.30051400     -8.87830000      4.35980000       1
H               5.25481000      7.50893000      3.87008000       1
N               4.12375000     -2.33183000     -8.74913000       7
H               8.77465000      2.94027000      3.73257000       1
C               0.45005200      1.47428000      9.86297000       6
H               0.41759100      8.98972000      4.35980000       1
H               3.20778000     -2.62132000     -9.14086000       1
H               8.35252000      2.17863000      5.15108000       1
I              -4.33043000      1.33932000     -8.98929000      53
I               2.85851000      7.82303000     -5.68803000      53
H               9.69790000      0.86458400      2.81876000       1
I               6.66600000     -5.02035000     -5.77771000      53
