200
cutoff_factor=1.20000000 nneightol=1.20000000 Lattice="29.35247000       0.00000000       0.00000000       0.00000000      29.40753000       0.00000000       0.00000000       0.00000000      28.41882000" Properties=species:S:1:pos:R:3:Z:I:1
H              -0.70966700      1.55212000      0.03650830       1
I               1.34241000     -1.06236000     -0.16583500      53
C              -0.35381300      2.24326000      0.80373700       6
H               0.70875300      2.08121000      0.99893400       1
H              -0.96084600      1.00438000      2.38569000       1
N              -1.11113000      1.98042000      2.06392000       7
H               0.61017800     -1.03243000     -3.04978000       1
H              -0.53441400      3.27700000      0.50154700       1
P              -0.53684000     -3.21013000      1.26039000      15
H              -2.12822000      2.14301000      1.92219000       1
I              -3.14668000     -1.73837000      0.13819700      53
H              -0.77459400      2.60376000      2.82484000       1
I              -2.44054000      1.88611000     -2.51992000      53
H              -0.53878800     -2.40599000     -3.18131000       1
H              -1.58759000     -0.26470300     -3.73946000       1
C               0.01364930     -1.64124000     -3.73183000       6
P               3.93136000      0.42989300     -1.25550000      15
I              -0.62407400     -1.27993000      3.90063000      53
I               2.03590000      2.48732000     -2.89372000      53
N              -0.96533100     -0.74970000     -4.42071000       7
H               3.74464000     -0.33650500      3.16147000       1
I               4.15316000      2.31883000      1.31649000      53
H              -0.49894400      0.00182292     -4.95879000       1
H               0.65310400     -2.09931000     -4.48886000       1
P              -5.03567000      0.42989300     -1.25550000      15
H              -4.02355000     -1.66436000      3.00858000       1
H               2.81341000     -2.50992000      3.77075000       1
I              -0.58974300     -5.16240000     -1.25376000      53
H              -1.54669000     -1.27121000     -5.11162000       1
I              -4.81387000      2.31883000      1.31649000      53
I               2.02370000     -4.64360000      2.49425000      53
P              -0.53254300      4.09792000     -3.89339000      15
H              -4.14335000     -3.73293000     -1.22883000       1
I               1.19208000      2.66643000      4.92021000      53
I               3.95604000     -1.42397000     -3.94219000      53
C               4.34550000     -1.07071000      3.70279000       6
H               2.72021000     -4.98968000     -1.32022000       1
N               3.42672000     -1.98951000      4.43303000       7
H               3.68822000      4.51048000     -1.33932000       1
H              -3.97743000     -0.57715100      4.43305000       1
I              -0.59168800      5.84860000     -1.25376000      53
C              -4.62153000     -1.07071000      3.70279000       6
H               4.94348000     -1.66436000      3.00858000       1
H               2.84323000     -1.48189000      5.13013000       1
I               5.82035000     -1.73837000      0.13819700      53
H              -5.22239000     -0.33650500      3.16147000       1
H              -3.25815000     -5.13241000     -1.26573000       1
H               4.82368000     -3.73293000     -1.22883000       1
H               2.90925000      2.02100000     -5.33636000       1
N              -4.16609000     -4.72191000     -1.55685000       7
I              -2.44721000     -5.26846000      2.93636000      53
I              -5.01099000     -1.42397000     -3.94219000      53
H              -0.56496700     -3.50106000      5.50770000       1
H               3.71771000     -5.43727000      0.10385900       1
P              -0.59856600      0.59503300      6.57309000      15
C               3.64275000     -5.46887000     -0.98497200       6
H               4.98960000     -0.57715100      4.43305000       1
H               3.71576000      5.57373000      0.10385900       1
C               3.64081000      5.54213000     -0.98497200       6
H               2.71826000      6.02132000     -1.32022000       1
I              -3.24022000      2.11606000      5.51857000      53
H              -4.16334000     -4.73663000     -2.59817000       1
H              -3.26010000      5.87859000     -1.26573000       1
H               4.00543000      0.78720700     -5.49912000       1
P               3.83664000      4.15495000      3.91612000      15
H               3.93941000     -2.71568000      4.96737000       1
I              -2.44916000      5.74255000      2.93636000      53
N               4.80094000     -4.72191000     -1.55685000       7
I              -0.55805100      2.22296000     -6.56586000      53
H              -5.27880000      4.51048000     -1.33932000       1
I               2.02175000      6.36740000      2.49425000      53
N               3.49274000      1.51338000     -6.03346000       7
H               4.80368000     -4.73663000     -2.59817000       1
I               6.52649000      1.88611000     -2.51992000      53
H              -1.61271000     -4.77409000      5.35487000       1
H               2.87943000      0.99296700     -6.69574000       1
N              -5.54031000     -1.98951000      4.43303000       7
H               6.83881000      2.14301000      1.92219000       1
H              -4.96160000      0.78720700     -5.49912000       1
N              -1.03135000     -4.25258000      6.04578000       7
I               1.26004000     -4.84169000     -5.54628000      53
H              -5.24932000     -5.43727000      0.10385900       1
H              -5.02762000     -2.71568000      4.96737000       1
H               3.69017000     -6.50052000     -1.33932000       1
H              -6.15362000     -2.50992000      3.77075000       1
H              -5.25127000      5.57373000      0.10385900       1
P              -5.13039000      4.15495000      3.91612000      15
C              -5.32428000     -5.46887000     -0.98497200       6
I              -7.62462000     -1.06236000     -0.16583500      53
N              -4.16803000      6.28910000     -1.55685000       7
C              -5.32622000      5.54213000     -0.98497200       6
H              -3.91141000      2.92573000     -6.03343000       1
H              -0.53247000     -7.73401000      0.50154700       1
H               5.70888000     -5.13241000     -1.26573000       1
H              -1.65361000     -3.76759000      6.72703000       1
I               1.96988000     -1.01556000      7.57277000      53
I              -6.93113000      2.48732000     -2.89372000      53
P              -0.53878500      7.80088000      1.26039000      15
P              -0.53059800     -6.91309000     -3.89339000      15
H              -4.16529000      6.27438000     -2.59817000       1
I              -3.17225000     -5.39206000     -4.94792000      53
N               4.79900000      6.28910000     -1.55685000       7
H               0.58513600      5.40881000      5.97763000       1
I              -2.38119000     -1.76557000     -7.53013000      53
H              -6.24682000     -4.98968000     -1.32022000       1
H              -6.12380000     -1.48189000      5.13013000       1
I              -3.17419000      5.61895000     -4.94792000      53
H               0.58708100     -5.60219000      5.97763000       1
I               5.72681000      2.11606000      5.51857000      53
H               7.37944000     -0.26470300     -3.73946000       1
N              -5.47428000      1.51338000     -6.03346000       7
H               5.70693000      5.87859000     -1.26573000       1
H               4.80174000      6.27438000     -2.59817000       1
I               2.08972000     -1.14072000     -7.97224000      53
H              -6.05777000      2.02100000     -5.33636000       1
P               3.90460000     -3.35317000     -6.55037000      15
N               7.85590000      1.98042000      2.06392000       7
H              -1.61466000      6.23691000      5.35487000       1
I               1.25810000      6.16932000     -5.54628000      53
H               5.05562000      2.92573000     -6.03343000       1
H               8.25736000      1.55212000      0.03650830       1
H               8.00618000      1.00438000      2.38569000       1
C               4.41152000      2.43217000     -6.76370000       6
H              -4.14529000      7.27807000     -1.22883000       1
C              -0.05237360     -5.14412000      6.73465000       6
H              -5.27686000     -6.50052000     -1.33932000       1
I              -2.50656000     -1.61678000      7.94657000      53
C              -4.55551000      2.43217000     -6.76370000       6
H              -8.25828000      2.08121000      0.99893400       1
H              -3.95753000      1.83853000     -7.45790000       1
H               0.54415500     -4.53531000      7.41671000       1
I              -6.94333000     -4.64360000      2.49425000      53
H              -6.24876000      6.02132000     -1.32022000       1
P               3.83858000     -6.85606000      3.91612000      15
C              -0.35186800     -8.76774000      0.80373700       6
H               4.82173000      7.27807000     -1.22883000       1
H               3.81066000      3.16638000     -7.30502000       1
I               6.51982000     -5.26846000      2.93636000      53
H              -0.77264900     -8.40725000      2.82484000       1
H              -0.60675600      5.10213000      7.28518000       1
C              -0.05431840      5.86688000      6.73465000       6
P              -5.06242000     -3.35317000     -6.55037000      15
C               8.61321000      2.24326000      0.80373700       6
H              -8.35685000     -1.03243000     -3.04978000       1
H               0.71069800     -8.92980000      0.99893400       1
H               8.19243000      2.60376000      2.82484000       1
I               3.89002000     -4.92685000      6.52430000      53
H               8.43261000      3.27700000      0.50154700       1
H               7.42034000     -1.27121000     -5.11162000       1
H              -6.08759000      0.99296700     -6.69574000       1
H              -0.70662600     -4.90436000     -7.64165000       1
P               8.43019000     -3.21013000      1.26039000      15
N              -1.03330000      6.75842000      6.04578000       7
I               6.51787000      5.74255000      2.93636000      53
H               5.00950000      1.83853000     -7.45790000       1
N               8.00170000     -0.74970000     -4.42071000       7
H              -0.54073300      8.60501000     -3.18131000       1
P              -0.47081700      0.29275600     -9.20610000      15
I               2.03785000     -8.52368000     -2.89372000      53
H              -0.89482300      4.50727000     -8.08080000       1
I               8.34295000     -1.27993000      3.90063000      53
H              -2.12627000     -8.86799000      1.92219000       1
H               8.42824000     -2.40599000     -3.18131000       1
N              -1.10918000     -9.03058000      2.06392000       7
H              -0.56691200      7.50994000      5.50770000       1
I               5.79478000     -5.39206000     -4.94792000      53
H              -4.23131000      2.77149000      7.86832000       1
H              -0.60481100     -5.90887000      7.28518000       1
P              -5.12845000     -6.85606000      3.91612000      15
I               5.79283000      5.61895000     -4.94792000      53
H              -0.70772200     -9.45889000      0.03650830       1
H              -5.15637000      3.16638000     -7.30502000       1
I              -0.65771100      2.34572000      9.21272000      53
I              -7.77495000      2.66643000      4.92021000      53
H               4.73572000      2.77149000      7.86832000       1
C              -9.32084000      2.24326000      0.80373700       6
I              -5.07701000     -4.92685000      6.52430000      53
H              -8.31392000     -2.09931000     -4.48886000       1
H               2.81147000      8.50109000      3.77075000       1
I               4.15511000     -8.69217000      1.31649000      53
I               3.88807000      6.08415000      6.52430000      53
I              -6.94527000      6.36740000      2.49425000      53
I               1.19402000     -8.34457000      4.92021000      53
I              -2.43860000     -9.12490000     -2.51992000      53
I              -3.14862000      9.27263000      0.13819700      53
H              -9.67669000      1.55212000      0.03650830       1
H              -0.70857100      6.10664000     -7.64165000       1
H               8.46808000      0.00182292     -4.95879000       1
C              -8.95338000     -1.64124000     -3.73183000       6
H               2.65224000      2.51844000      9.14627000       1
H               0.54221000      6.47569000      7.41671000       1
C               8.98068000     -1.64124000     -3.73183000       6
H               3.62220000      1.00760000      9.12716000       1
I               8.37728000     -5.16240000     -1.25376000      53
H               9.67578000      2.08121000      0.99893400       1
H               0.65115900      8.91169000     -4.48886000       1
I              -4.81192000     -8.69217000      1.31649000      53
H              -1.65556000      7.24342000      6.72703000       1
I               1.34047000      9.94864000     -0.16583500      53
H              -9.50144000      3.27700000      0.50154700       1
