200
cutoff_factor=1.20000000 nneightol=1.20000000 Lattice="28.58009000       0.00000000       0.00000000       0.00000000      28.66044000       0.00000000       0.00000000       0.00000000      28.44656000" Properties=species:S:1:pos:R:3:Z:I:1
I              -0.39487400     -0.80696900     -0.67594400      53
P               1.41754000      1.81528000     -0.66753600      15
H               0.30722400     -1.52837000      2.93155000       1
H               2.09882000     -2.15931000      1.42765000       1
I               1.53244000      1.74281000      2.53262000      53
H              -1.77590000      1.95170000      2.30956000       1
H               0.80578900     -3.40169000      1.47911000       1
C               1.60363000     -2.91358000      2.04356000       6
I              -1.18542000      3.68198000     -0.52613400      53
H               0.99863500     -0.92976800     -3.77760000       1
P              -3.00403000     -2.63067000     -0.65235500      15
N               0.99866200     -2.23505000      3.22751000       7
I               4.05588000     -0.03715250     -0.85196600      53
H              -3.84524000      1.16873000      1.27905000       1
H              -0.09626840     -2.17701000     -3.67010000       1
H              -2.29214000      2.66515000     -2.61972000       1
H              -3.52155000      0.28504100      2.64956000       1
H               2.04704000     -2.83328000     -2.70354000       1
I               1.16050000      1.73577000     -3.93734000      53
C              -2.74093000      2.24691000      2.72761000       6
H               1.72156000     -1.76397000      3.81393000       1
N              -3.76385000      1.23866000      2.31439000       7
N               0.79796100     -1.89292000     -4.11296000       7
I              -3.06359000     -2.34929000      2.53983000      53
H               0.52421700     -2.92246000      3.85289000       1
H              -1.53420000      2.30442000     -4.06722000       1
H               2.32666000     -3.65146000      2.39890000       1
H              -3.29624000      0.66733600     -3.63310000       1
I              -4.88312000     -0.03715250     -0.85196600      53
H              -3.04192000      3.22329000      2.34113000       1
N              -2.43852000      2.59558000     -3.64977000       7
C               1.91152000     -2.83073000     -3.78677000       6
H              -2.69482000      2.26560000      3.81890000       1
H               4.23077000      1.48318000      2.67369000       1
H               5.09376000      1.16873000      1.27905000       1
I              -1.13448000     -5.26333000     -0.52613400      53
H               0.62279100     -1.82150000     -5.13845000       1
I               3.35580000      4.35794000     -0.75895600      53
I              -2.81145000     -2.75262000     -3.92731000      53
C              -3.55154000      1.66507000     -3.99727000       6
H              -4.70822000      1.48318000      2.67369000       1
H               2.81784000     -2.47885000     -4.28463000       1
I               3.40675000     -4.58737000     -0.75895600      53
H               0.75484100      5.54362000      1.47911000       1
N               5.17514000      1.23866000      2.31439000       7
H               1.64214000     -3.82775000     -4.14263000       1
I              -1.22567000      0.04520790      5.82069000      53
H              -2.63235000      3.56157000     -3.98370000       1
H              -4.46520000      2.02469000     -3.51850000       1
H               5.41744000      0.28504100      2.64956000       1
H               4.47380000      2.02469000     -3.51850000       1
P               1.36097000      1.92272000      5.73105000      15
H               2.27572000      5.29385000      2.39890000       1
H              -3.66567000      1.65938000     -5.08311000       1
P               5.93496000     -2.63067000     -0.65235500      15
C               1.55268000      6.03173000      2.04356000       6
I               3.17688000     -0.77810000      5.70385000      53
H               5.64275000      0.66733600     -3.63310000       1
H               1.59119000      5.11756000     -4.14263000       1
I               5.87540000     -2.34929000      2.53983000      53
H              -2.99097000     -5.72202000      2.34113000       1
C               5.38745000      1.66507000     -3.99727000       6
H               1.99610000      6.11203000     -2.70354000       1
P              -3.10740000     -2.54554000      5.72742000      15
P              -3.05498000      6.31464000     -0.65235500      15
H               5.89707000      3.22329000      2.34113000       1
I              -5.58319000      4.35794000     -0.75895600      53
C               6.19806000      2.24691000      2.72761000       6
H              -2.24119000     -6.28016000     -2.61972000       1
H               0.47326900      6.02285000      3.85289000       1
H              -2.58141000     -5.38374000     -3.98370000       1
I              -0.45287300     -4.41868000      5.66788000      53
I              -5.53225000     -4.58737000     -0.75895600      53
H               2.04787000      6.78599000      1.42765000       1
I              -0.50382100      4.52662000      5.66788000      53
I              -0.43695200     -0.82612500     -7.24617000      53
P               1.46848000     -7.13003000     -0.66753600      15
H              -6.84017000     -2.15931000      1.42765000       1
C               1.86057000      6.11458000     -3.78677000       6
N               0.94771400      6.71026000      3.22751000       7
H               5.27333000      1.65938000     -5.08311000       1
P               1.33596000      1.84981000     -7.16208000      15
H              -1.72495000     -6.99361000      2.30956000       1
H               6.64686000      2.66515000     -2.61972000       1
H               6.24417000      2.26560000      3.81890000       1
H              -0.14721600      6.76830000     -3.67010000       1
N              -2.38757000     -6.34973000     -3.64977000       7
C              -2.68998000     -6.69840000      2.72761000       6
I              -3.11454000      6.59602000      2.53983000      53
P              -7.52146000      1.81528000     -0.66753600      15
H               7.16310000      1.95170000      2.30956000       1
I               6.12754000     -2.75262000     -3.92731000      53
I               1.58339000     -7.20250000      2.53262000      53
I               4.00773000      3.72384000      5.64333000      53
I              -2.86240000      6.19269000     -3.92731000      53
H              -6.12115000     -2.47885000     -4.28463000       1
N               6.50047000      2.59558000     -3.64977000       7
H              -6.61233000     -3.65146000      2.39890000       1
H              -6.89195000     -2.83328000     -2.70354000       1
H              -1.48325000     -6.64089000     -4.06722000       1
H               0.25627600      7.41694000      2.93155000       1
I              -7.40655000      1.74281000      2.53262000      53
H              -2.64388000     -6.67971000      3.81890000       1
I              -5.76211000     -0.77810000      5.70385000      53
I              -1.31875000      3.61724000     -7.18565000      53
C              -7.33537000     -2.91358000      2.04356000       6
I              -0.44582200      8.13834000     -0.67594400      53
N               0.74701300      7.05238000     -4.11296000       7
P              -3.08372000     -2.62724000     -7.15845000      15
H               2.76689000      6.46646000     -4.28463000       1
I               3.99049000     -0.02334010     -7.22161000      53
H               6.30664000      3.56157000     -3.98370000       1
H               1.67062000      7.18134000      3.81393000       1
I               1.21145000     -7.20954000     -3.93734000      53
H               0.82996200     -2.73596000      7.80639000       1
H              -7.21743000     -1.76397000      3.81393000       1
I              -4.93126000      3.72384000      5.64333000      53
C              -7.02748000     -2.83073000     -3.78677000       6
P               5.83159000     -2.54554000      5.72742000      15
H               5.94802000     -5.72202000      2.34113000       1
I               7.75357000      3.68198000     -0.52613400      53
I               8.54412000     -0.80696900     -0.67594400      53
P               5.88401000      6.31464000     -0.65235500      15
I               4.05868000     -5.22147000      5.64333000      53
H              -3.79429000     -7.77658000      1.27905000       1
I              -4.94850000     -0.02334010     -7.22161000      53
H               7.40479000      2.30442000     -4.06722000       1
H               0.57184300      7.12381000     -5.13845000       1
H              -6.66328000      5.29385000      2.39890000       1
H              -7.94036000     -0.92976800     -3.77760000       1
N              -7.94033000     -2.23505000      3.22751000       7
N              -3.71290000     -7.70665000      2.31439000       7
I              -7.77849000      1.73577000     -3.93734000      53
H               0.94768800      8.01554000     -3.77760000       1
H              -4.41425000     -6.92062000     -3.51850000       1
H              -8.13320000     -3.40169000      1.47911000       1
I               3.21769000      4.44055000     -7.06880000      53
H               4.52475000     -6.92062000     -3.51850000       1
I               3.26864000     -4.50476000     -7.06880000      53
H              -1.67647000      2.07111000      8.60486000       1
H               4.28172000     -7.46213000      2.67369000       1
C              -3.50059000     -7.28024000     -3.99727000       6
I              -1.26780000     -5.32807000     -7.18565000      53
H              -3.87152000      2.72847000      7.75104000       1
I              -4.88032000     -5.22147000      5.64333000      53
H               1.86328000     -0.83377000      8.90579000       1
P              -3.15835000      6.39977000      5.72742000      15
I               5.82445000      6.59602000      2.53983000      53
P               1.41191000     -7.02259000      5.73105000      15
H              -4.65727000     -7.46213000      2.67369000       1
H              -7.29685000     -3.82775000     -4.14263000       1
H              -2.85217000      0.72221800      8.74686000       1
H               6.35759000     -5.38374000     -3.98370000       1
H              -8.63177000     -1.52837000      2.93155000       1
I               1.63323000      1.79734000      8.96219000      53
N              -8.14103000     -1.89292000     -4.11296000       7
C               0.94408800     -2.73027000      8.89222000       6
I              -9.33387000     -0.80696900     -0.67594400      53
H               5.14471000     -7.77658000      1.27905000       1
I               7.80452000     -5.26333000     -0.52613400      53
I               6.07660000      6.19269000     -3.92731000      53
H               1.79949000     -2.28436000     -9.07059000       1
H               2.96143000     -2.09092000      8.82227000       1
H               6.69780000     -6.28016000     -2.61972000       1
C               6.24901000     -6.69840000      2.72761000       6
H              -3.61472000     -7.28593000     -5.08311000       1
N               5.22609000     -7.70665000      2.31439000       7
H              -3.24529000     -8.27797000     -3.63310000       1
P               5.85528000     -2.62724000     -7.15845000      15
C              -2.58279000      1.71923000      9.10272000       6
N               2.05711000     -1.79977000      9.23972000       7
H              -6.94290000      6.11203000     -2.70354000       1
H               5.06747000      2.72847000      7.75104000       1
I               7.71332000      0.04520790      5.82069000      53
H               0.03043370     -2.37065000      9.37099000       1
P              -7.57803000      1.92272000      5.73105000      15
H              -3.47060000     -8.66027000      2.64956000       1
H              -8.41478000     -2.92246000      3.85289000       1
C              -7.38632000      6.03173000      2.04356000       6
H              -6.89112000      6.78599000      1.42765000       1
I              -0.34392600     -9.75228000     -0.67594400      53
I               4.00493000      8.90816000     -0.85196600      53
H               8.84273000     -2.17701000     -3.67010000       1
H               9.24622000     -1.52837000      2.93155000       1
N               6.55142000     -6.34973000     -3.64977000       7
H              -2.77406000      2.63137000     -9.07557000       1
H              -7.34780000      5.11756000     -4.14263000       1
N              -3.69635000      2.65704000      8.77653000       7
I              -3.28286000     -2.65958000      8.95215000      53
H              -6.17210000      6.46646000     -4.28463000       1
I               4.10682000     -8.98246000     -0.85196600      53
C               5.43840000     -7.28024000     -3.99727000       6
H               6.29512000     -6.67971000      3.81890000       1
H              -8.31620000     -1.82150000     -5.13845000       1
H              -3.97141000      1.47288000     -9.03660000       1
H              -9.03526000     -2.17701000     -3.67010000       1
H              -8.18415000      5.54362000      1.47911000       1
H               0.77901400      6.20935000      7.80639000       1
P              -3.13466000      6.31806000     -7.15845000      15
H               1.19939000     -3.72801000      9.25640000       1
