200
cutoff_factor=1.20000000 nneightol=1.20000000 Lattice="29.73101000       0.00000000       0.00000000       0.00000000      29.61932000       0.00000000       0.00000000       0.00000000      30.17147000" Properties=species:S:1:pos:R:3:Z:I:1
H              -0.11041600     -0.03735760      0.75205100       1
C              -0.25661000      1.04516000      0.75204400       6
H              -0.79573100      1.35783000     -0.14453900       1
H               1.61593000      1.40038000     -0.09363920       1
N               1.08016000      1.70431000      0.75201000       7
H              -0.79569000      1.35785000      1.64865000       1
H               1.61596000      1.40040000      1.59765000       1
H               0.96274400      2.72272000      0.75199600       1
I              -2.28250000     -0.90589900     -1.73546000      53
I               0.55094600     -3.39873000      0.75202600      53
I               3.04103000      0.16876700     -1.82109000      53
H               2.95668000     -2.64692000      0.75201400       1
H               3.78339000     -1.45859000     -0.08246790       1
I              -2.28252000     -0.90591200      3.23949000      53
P              -0.72628900     -3.52506000     -2.24437000      15
I              -0.97158600      3.30578000     -2.63971000      53
H               3.78341000     -1.45860000      1.58650000       1
N               3.83601000     -2.08643000      0.75201000       7
I               3.04102000      0.16875900      3.32511000      53
H              -3.85335000     -2.23960000      0.75199400       1
I              -3.89779000      2.49965000      0.75202600      53
H              -0.26689300      1.67248000     -4.42692000       1
P              -3.96679000      1.76094000     -2.24943000      15
H               2.05544000      1.02316000     -4.36884000       1
P              -0.72631100     -3.52508000      3.74840000      15
H              -0.05752090      0.19909600     -5.26408000       1
I              -0.97160400      3.30577000      4.14377000      53
N               0.16021200      1.21356000     -5.26408000       7
C              -4.71395000     -2.91239000      0.75199000       6
C               1.62563000      1.47319000     -5.26411000       6
P              -3.96681000      1.76093000      3.75348000      15
I               0.05614240     -2.58020000     -5.26410000      53
H               3.45218000     -1.92120000     -4.36698000       1
H              -4.71241000     -3.53458000     -0.14554600       1
C               5.07848000     -2.91239000      0.75199000       6
H               1.78530000      2.55366000     -5.26411000       1
H              -4.71240000     -3.53461000      1.64951000       1
H              -0.26695500      1.67247000      5.93101000       1
H              -6.00904000     -1.45859000     -0.08246790       1
H               5.08002000     -3.53458000     -0.14554600       1
H               2.05537000      1.02316000      5.87282000       1
H              -0.26692500      1.67248000     -6.10122000       1
N              -5.95642000     -2.08643000      0.75201000       7
H              -6.00902000     -1.45860000      1.58650000       1
H               5.93908000     -2.23960000      0.75199400       1
I              -0.80620500      6.30787000      0.75202600      53
H               5.08003000     -3.53461000      1.64951000       1
I               5.89464000      2.49965000      0.75202600      53
P               5.82564000      1.76094000     -2.24943000      15
H               2.05540000      1.02317000     -6.15941000       1
I              -3.60000000     -4.88103000     -2.75901000      53
I              -4.13141000      0.99999000     -5.26409000      53
H              -0.05755070      0.19908200      6.76815000       1
N               0.16018200      1.21355000      6.76815000       7
H              -4.12121000     -1.65776000     -5.26407000       1
P              -2.08344000      6.18154000     -2.24437000      15
H              -4.25165000     -3.14831000     -4.42942000       1
C               3.74959000     -2.46886000     -5.26416000       6
I               0.38556500     -6.40082000     -2.63971000      53
I              -6.75140000      0.16876700     -1.82109000      53
H               3.45225000     -1.92128000      5.87081000       1
C               1.62560000      1.47318000      6.76812000       6
H               3.31277000     -3.47000000     -5.26415000       1
P               5.82562000      1.76093000      3.75348000      15
H               3.72287000      6.17202000     -0.14554600       1
I               0.05611250     -2.58021000      6.76814000      53
H               1.59952000      7.05968000      0.75201400       1
H               3.45228000     -1.92127000     -6.16142000       1
I               4.83528000      4.82557000     -2.75901000      53
H              -6.83575000     -2.64692000      0.75201400       1
H               3.72288000      6.17199000      1.64951000       1
H               2.31990000     -6.98387000      0.75199600       1
I              -3.60001000     -4.88104000      4.26307000      53
N              -4.56424000     -2.60130000     -5.26408000       7
I              -4.95715000      4.82557000     -2.75901000      53
H               1.78527000      2.55364000      6.76813000       1
P              -2.08346000      6.18152000      3.74840000      15
I              -6.75141000      0.16875900      3.32511000      53
I               0.38554700     -6.40083000      4.14377000      53
I              -2.54064000     -7.20695000      0.75202600      53
I               7.50993000     -0.90589900     -1.73546000      53
H               5.54078000     -3.14831000     -4.42942000       1
C               3.72133000      6.79421000      0.75199000       6
H              -0.26692300      1.67246000      7.60532000       1
I               5.66102000      0.99999000     -5.26409000      53
N               5.22819000     -2.60130000     -5.26408000       7
H               5.67122000     -1.65776000     -5.26407000       1
H              -6.34025000     -1.92120000     -4.36698000       1
H              -4.25161000     -3.14834000      5.93353000       1
I              -4.13144000      0.99997600      6.76814000      53
H               2.05541000      1.02314000      7.66339000       1
N               2.47886000      7.62017000      0.75201000       7
I               4.83527000      4.82556000      4.26307000      53
H              -4.25158000     -3.14833000     -6.09871000       1
H              -4.12124000     -1.65777000      6.76816000       1
C               3.74956000     -2.46888000      6.76807000       6
I              -4.95716000      4.82556000      4.26307000      53
I               7.50991000     -0.90591200      3.23949000      53
H               3.31274000     -3.47001000      6.76808000       1
H              -8.17650000      1.40038000     -0.09363920       1
I               6.19243000     -4.88103000     -2.75901000      53
H               0.56142000     -8.34877000     -0.14453900       1
C              -6.04284000     -2.46886000     -5.26416000       6
H               1.95561000      6.23660000     -5.26415000       1
N               2.43731000     -8.00229000      0.75201000       7
H              -8.17647000      1.40040000      1.59765000       1
H               0.56146100     -8.34875000      1.64865000       1
N              -4.56427000     -2.60132000      6.76815000       7
H               2.42624000      8.24800000     -0.08246790       1
I              -0.97157400      3.30578000     -7.88846000      53
H               3.45215000     -1.92122000      7.66526000       1
H              -6.06956000      6.17202000     -0.14554600       1
P              -2.60964000     -7.94566000     -2.24943000      15
H               5.54082000     -3.14834000      5.93353000       1
H               2.42626000      8.24799000      1.58650000       1
C               1.10054000     -8.66144000      0.75204400       6
H               4.58192000      7.46700000      0.75199400       1
H              -6.06955000      6.17199000      1.64951000       1
H               5.54085000     -3.14833000     -6.09871000       1
H               2.97308000     -8.30622000     -0.09363920       1
H              -6.34018000     -1.92128000      5.87081000       1
I               5.66099000      0.99997600      6.76814000      53
N              -8.71227000      1.70431000      0.75201000       7
N               5.22816000     -2.60132000      6.76815000       7
H              -7.73699000      1.02316000     -4.36884000       1
H               4.18362000      6.55829000     -4.42942000       1
I              -1.30101000      7.12640000     -5.26410000      53
I               6.19242000     -4.88104000      4.26307000      53
H               2.97311000     -8.30620000      1.59765000       1
H               5.67119000     -1.65777000      6.76816000       1
P              -0.72628200     -3.52506000     -8.28383000      15
H              -6.47966000     -3.47000000     -5.26415000       1
H              -6.34015000     -1.92127000     -6.16142000       1
H               8.99670000      1.35783000     -0.14453900       1
I              -2.28249000     -0.90589800     -8.79274000      53
H              -5.21051000      7.46700000      0.75199400       1
C              -6.07110000      6.79421000      0.75199000       6
P              -2.60966000     -7.94567000      3.75348000      15
H               2.09503000      7.78539000     -4.36698000       1
I               3.04105000      0.16877300     -8.70712000      53
H               1.09026000     -8.03412000     -4.42692000       1
H               8.99674000      1.35785000      1.64865000       1
H              -4.25168000     -3.14833000      7.60281000       1
C               2.39244000      7.23773000     -5.26416000       6
H              -8.82969000      2.72272000      0.75199600       1
P              -3.96678000      1.76095000     -8.27876000      15
C              -6.04287000     -2.46888000      6.76807000       6
H               1.95558000      6.23658000      6.76808000       1
H               3.14245000     -7.15294000     -5.26411000       1
C               9.53582000      1.04516000      0.75204400       6
N               3.87104000      7.10530000     -5.26408000       7
I              -3.63965000      8.80070000     -1.73546000      53
H              -5.60881000      6.55829000     -4.42942000       1
H               9.68201000     -0.03735760      0.75205100       1
H              -7.73706000      1.02316000      5.87282000       1
I               8.82084000      3.30578000     -2.63971000      53
H               4.18367000      6.55826000      5.93353000       1
H              -1.46757000      9.66924000      0.75205100       1
C              -8.16680000      1.47319000     -5.26411000       6
H               1.24673000     -9.74396000      0.75205100       1
I              -3.59998000     -4.88103000     -7.76916000      53
I              -9.24148000     -3.39873000      0.75202600      53
H               4.18370000      6.55827000     -6.09871000       1
I              -1.30104000      7.12638000      6.76814000      53
H              -8.00713000      2.55366000     -5.26411000       1
H               5.54075000     -3.14833000      7.60281000       1
H              -9.90285000     -0.03735760      0.75205100       1
H              -7.73703000      1.02317000     -6.15941000       1
H               2.09510000      7.78532000      5.87081000       1
P               9.06614000     -3.52506000     -2.24437000      15
H              -6.47969000     -3.47001000      6.76808000       1
I              -0.97161600      3.30576000      9.39252000      53
H               1.09020000     -8.03413000      5.93101000       1
I              -3.63967000      8.80069000      3.23949000      53
N               1.51736000     -8.49303000     -5.26408000       7
C             -10.04900000      1.04516000      0.75204400       6
H              -6.34028000     -1.92122000      7.66526000       1
P               7.70899000      6.18154000     -2.24437000      15
H               1.09023000     -8.03411000     -6.10122000       1
H               2.09513000      7.78533000     -6.16142000       1
I               0.38557700     -6.40082000     -7.88846000      53
I               1.68388000      9.87536000     -1.82109000      53
C               2.39241000      7.23772000      6.76807000       6
C               2.98278000     -8.23340000     -5.26411000       6
I               7.25179000     -7.20695000      0.75202600      53
H              -7.47253000     -6.98387000      0.75199600       1
P               5.82565000      1.76095000     -8.27876000      15
I               8.82083000      3.30577000      4.14377000      53
H               3.41259000     -8.68344000     -4.36884000       1
H               3.14242000     -7.15296000      6.76813000       1
I               4.83530000      4.82557000     -7.76916000      53
I              -4.95713000      4.82557000     -7.76916000      53
P               9.06612000     -3.52508000      3.74840000      15
P              -0.72631900     -3.52508000      9.78787000      15
H              -5.60876000      6.55826000      5.93353000       1
H              -0.79566000      1.35786000    -10.38360000       1
H               4.31406000      8.04884000     -5.26407000       1
P              -2.08343000      6.18154000     -8.28383000      15
I              -2.77425000     -8.70661000     -5.26409000      53
N               3.87101000      7.10528000      6.76815000       7
