200
cutoff_factor=1.20000000 nneightol=1.20000000 Lattice="28.42733000       0.00000000       0.00000000       0.00000000      28.58640000       0.00000000       0.00000000       0.00000000      29.09379000" Properties=species:S:1:pos:R:3:Z:I:1
P              -0.55371800      0.07220510     -0.01193440      15
I               2.11771000     -1.84183000     -0.52995700      53
I               1.25710000      2.73331000     -0.05738910      53
I               0.02297540     -0.31613400      3.11832000      53
I              -1.11103000      0.22358100     -3.12070000      53
I              -2.27871000     -2.75527000     -0.03630820      53
I              -3.22526000      1.74730000      0.56712600      53
H               2.58353000     -0.19384400      2.66419000       1
H              -0.70492900     -3.51891000      1.87720000       1
H              -0.80881300     -3.61130000     -2.12864000       1
H               4.05489000      0.10596000      1.86115000       1
H               0.80663200     -3.54703000      2.63932000       1
N               3.61365000     -0.33758300      2.69528000       7
H               3.44909000      1.09569000     -2.71670000       1
H               0.31534700      4.11047000      1.86986000       1
H               2.53642000      0.07794500     -3.87911000       1
H              -3.62108000     -0.45582500     -2.91514000       1
H               3.88122000     -1.24158000     -2.38646000       1
N              -0.05432060     -4.09338000      2.45229000       7
H               0.46545300      4.23259000     -2.17698000       1
H               3.77074000     -1.36524000      2.66759000       1
H              -1.61023000      3.38180000     -3.09558000       1
H               0.39342700     -3.54067000     -3.32189000       1
N              -0.22087800     -4.17661000     -2.77278000       7
C               3.52640000      0.42739500     -3.57721000       6
H              -4.87043000      0.10596000      1.86115000       1
H               0.21903300     -4.91287000      1.86986000       1
H               0.36913800     -4.79076000     -2.17698000       1
H              -3.67176000      0.05689990      3.95451000       1
N               4.34282000     -0.75391700     -3.18302000       7
H              -1.49400000      3.94955000      3.50164000       1
N               0.04199420      4.92996000      2.45229000       7
H              -0.31621200      3.44177000     -4.33671000       1
C              -0.97223900      4.03423000     -3.69584000       6
N              -0.12456300      4.84673000     -2.77278000       7
N              -4.58250000     -0.75391700     -3.18302000       7
H              -0.93883200     -3.60361000      4.29897000       1
H              -5.04409000     -1.24158000     -2.38646000       1
C               4.17725000      0.24280300      3.94304000       6
H               3.97585000      1.31636000      3.94598000       1
H               0.11828900      3.90387000      4.28954000       1
H              -0.60861400      5.50444000      1.87720000       1
H              -0.71249800      5.41204000     -2.12864000       1
C              -0.68797300     -4.50363000      3.73325000       6
C              -0.59165800      4.51971000      3.73325000       6
H              -5.15457000     -1.36524000      2.66759000       1
N              -5.31167000     -0.33758300      2.69528000       7
I               5.70006000      1.74730000      0.56712600      53
P               4.07236000      4.41019000     -0.00661390      15
H               4.02493000      0.93045100     -4.40883000       1
H               3.69657000     -0.23886500      4.79757000       1
H               5.30424000     -0.45582500     -2.91514000       1
P               3.97604000     -4.61315000     -0.00661390      15
H               4.44236000     -1.41062000     -3.97979000       1
H               0.90294700      5.47631000      2.63932000       1
H              -4.48296000     -1.41062000     -3.97979000       1
I               3.56866000     -3.94246000      3.11014000      53
C              -4.74807000      0.24280300      3.94304000       6
H              -5.47623000      1.09569000     -2.71670000       1
C              -1.06855000     -4.98911000     -3.69584000       6
H              -1.67618000     -4.30886000     -4.29667000       1
P              -0.41320700      0.09337750      6.32538000      15
H              -1.59031000     -5.07380000      3.50164000       1
I               1.32044000     -2.47830000     -5.72706000      53
P              -0.75323700     -0.11900700     -6.34103000      15
I               1.16078000     -6.29004000     -0.05738910      53
H               0.48974200      5.48267000     -3.32189000       1
H              -4.94946000      1.31636000      3.94598000       1
C              -5.39892000      0.42739500     -3.57721000       6
P              -4.85296000      4.41019000     -0.00661390      15
H              -1.57987000      4.71449000     -4.29667000       1
H               5.25355000      0.05689990      3.95451000       1
I              -2.18239000      6.26807000     -0.03630820      53
H              -4.90039000      0.93045100     -4.40883000       1
H              -1.70654000     -5.64154000     -3.09558000       1
I               4.16740000      4.15453000     -3.14706000      53
H               0.02197410     -5.11947000      4.28954000       1
P              -4.94927000     -4.61315000     -0.00661390      15
I               1.56569000      2.06599000     -6.35231000      53
H              -6.34178000     -0.19384400      2.66419000       1
I              -2.56447000      2.44271000      5.92386000      53
H              -0.84251700      5.41974000      4.29897000       1
I               1.90572000      2.27837000      6.31410000      53
I               3.66498000      5.08089000      3.11014000      53
I              -4.75792000      4.15453000     -3.14706000      53
I              -6.80761000     -1.84183000     -0.52995700      53
H              -0.41252700     -5.58157000     -4.33671000       1
I               4.07109000     -4.86882000     -3.14706000      53
H              -5.22874000     -0.23886500      4.79757000       1
I               6.64661000     -2.75527000     -0.03630820      53
I              -2.82699000     -2.02148000      6.36245000      53
I              -5.35665000     -3.94246000      3.11014000      53
I              -3.16702000     -2.23387000     -6.30396000      53
H              -6.38889000      0.07794500     -3.87911000       1
I               1.66047000     -2.26592000      6.93935000      53
I               2.21402000      7.18152000     -0.52995700      53
I              -4.85423000     -4.86882000     -3.14706000      53
I              -2.90450000      2.23033000     -6.74255000      53
I              -5.26034000      5.08089000      3.11014000      53
I              -3.32157000     -7.27604000      0.56712600      53
I              -7.66822000      2.73331000     -0.05738910      53
P               8.37160000      0.07220510     -0.01193440      15
I               7.81429000      0.22358100     -3.12070000      53
H               3.35654000     -0.45124900     -7.86884000       1
P               3.71585000      4.40397000     -6.35239000      15
H               7.31509000      3.38180000     -3.09558000       1
P               3.61953000     -4.61937000     -6.35239000      15
P               3.95956000     -4.40699000      6.31402000      15
P               4.05588000      4.61636000      6.31402000      15
I               1.41675000      6.54504000     -5.72706000      53
I               5.75830000     -2.23387000     -6.30396000      53
P              -0.65003300     -8.95114000     -0.01193440      15
H               3.86706000      7.65810000      2.66759000       1
H               3.35277000     -7.92765000     -2.71670000       1
I               6.36085000      2.44271000      5.92386000      53
I               6.09833000     -2.02148000      6.36245000      53
H               3.97754000      7.78176000     -2.38646000       1
H               0.02381840      3.65416000      8.32970000       1
P              -0.45740400      9.09555000     -0.01193440      15
H               7.43132000      3.94955000      3.50164000       1
H               8.11651000     -3.61130000     -2.12864000       1
H               8.22039000     -3.51891000      1.87720000       1
H              -0.22174200      3.69149000     -8.37687000       1
P              -4.96575000     -4.40699000      6.31402000      15
I               5.60375000     -7.27604000      0.56712600      53
I               6.74293000      6.26807000     -0.03630820      53
P              -4.86944000      4.61636000      6.31402000      15
H              -8.11869000     -3.54703000      2.63932000       1
I              -2.66079000     -6.58063000      5.92386000      53
I               0.11929000      8.70721000      3.11832000      53
H               2.87646000      0.29032900      8.78730000       1
H              -1.27886000     -3.81599000     -8.36744000       1
I               6.02082000      2.23033000     -6.74255000      53
P              -5.20947000      4.40397000     -6.35239000      15
H               4.36496000      1.14284000      8.25758000       1
H              -1.33615000     -4.09647000      8.36974000       1
I              -1.20735000     -8.79976000     -3.12070000      53
I               1.80941000     -6.74497000      6.31410000      53
I              -8.90234000     -0.31613400      3.11832000      53
H               7.24913000     -4.30886000     -4.29667000       1
P              -5.30579000     -4.61937000     -6.35239000      15
P              -9.47904000      0.07220510     -0.01193440      15
I               8.94829000     -0.31613400      3.11832000      53
H               3.87954000     -7.70698000      3.94598000       1
H              -4.56036000      1.14284000      8.25758000       1
H               3.63582000      1.10398000     -8.72043000       1
H              -4.94778000      7.78176000     -2.38646000       1
C               3.83722000      0.03041920     -8.72337000       6
I               1.46938000     -6.95735000     -6.35231000      53
H              -5.05826000      7.65810000      2.66759000       1
I              -0.31705500     -0.52851800     -9.54808000      53
H               7.33500000     -5.07380000      3.50164000       1
I              -0.77100200      0.43596500      9.54571000      53
H              -4.01180000     -0.15548400     -8.71190000       1
H               2.67985000      8.82950000      2.66419000       1
H              -4.38665000      7.61272000     -3.97979000       1
H              -5.56878000     -0.45124900     -7.86884000       1
C               7.95308000      4.03423000     -3.69584000       6
H               7.21877000     -5.64154000     -3.09558000       1
H              -4.14293000     -1.19824000      8.68662000       1
H              -8.45987000      4.23259000     -2.17698000       1
H              -3.52477000      8.56752000     -2.91514000       1
I              -7.01960000      2.27837000      6.31410000      53
H               4.53867000      7.61272000     -3.97979000       1
H              -8.60997000      4.11047000      1.86986000       1
H               7.34545000      4.71449000     -4.29667000       1
H               7.98649000     -3.60361000      4.29897000       1
I              -3.07071000      6.78948000     -6.30396000      53
H              -1.23984000      4.92687000      8.36974000       1
I              -1.01472000      9.24692000     -3.12070000      53
H              -8.53189000     -3.54067000     -3.32189000       1
N               3.70996000      8.68576000      2.69528000       7
I              -7.60488000     -2.47830000     -5.72706000      53
I              -6.71130000      7.18152000     -0.52995700      53
I               1.75678000      6.75742000      6.93935000      53
I              -0.07333940     -9.33948000      3.11832000      53
I              -2.73068000      7.00186000      6.36245000      53
C               3.86643000      0.63977900      9.08920000       6
H              -0.07249640     -5.36919000      8.32970000       1
N               4.43914000      8.26943000     -3.18302000       7
H               2.48722000     -9.21719000      2.66419000       1
C               3.43008000     -8.59595000     -3.57721000       6
H              -1.18255000      5.20735000     -8.36744000       1
N              -4.48618000      8.26943000     -3.18302000       7
H               3.95857000     -8.91738000      1.86115000       1
H              -0.31805700     -5.33185000     -8.37687000       1
I              -7.35963000      2.06599000     -6.35231000      53
C              -0.63220800      4.24662000      8.97057000       6
H               0.73345700     -3.32829000      9.34452000       1
C              -0.93168900      4.30733000     -8.93316000       6
H               4.78239000     -1.19824000      8.68662000       1
I              -7.76454000     -6.29004000     -0.05738910      53
H               4.91352000     -0.15548400     -8.71190000       1
C               7.85676000     -4.98911000     -3.69584000       6
H               3.92861000     -8.09289000     -4.40883000       1
H              -5.04578000     -7.70698000      3.94598000       1
I              -3.00082000     -6.79302000     -6.74255000      53
H              -8.55618000     -4.79076000     -2.17698000       1
N               8.70444000     -4.17661000     -2.77278000       7
H               2.44011000     -8.94540000     -3.87911000       1
