200
cutoff_factor=1.20000000 nneightol=1.20000000 Lattice="29.60388000       0.00000000       0.00000000       0.00000000      29.03771000       0.00000000       0.00000000       0.00000000      28.77205000" Properties=species:S:1:pos:R:3:Z:I:1
H               0.98820600     -1.07681000      1.35457000       1
I              -0.85400500      1.47189000      1.08201000      53
H               1.09118000      1.02182000     -1.35528000       1
C               0.74173900     -1.84709000      2.08864000       6
C               0.86732400      1.47357000     -2.32414000       6
H              -0.18160100      1.77473000     -2.37081000       1
H              -0.30737900     -1.77122000      2.38321000       1
I              -1.58808000     -2.08867000     -1.63100000      53
I               2.86361000     -1.48564000     -1.10218000      53
H               1.10333000      0.77907500     -3.13367000       1
H               0.95649700     -2.84003000      1.68736000       1
P              -3.45110000     -0.02314950      0.07001740      15
N               1.58887000     -1.63303000      3.29893000       7
H               1.40433000     -0.69618000      3.71409000       1
N               1.71562000      2.69061000     -2.48295000       7
H               1.52102000      3.37573000     -1.72556000       1
H               2.59809000     -1.70943000      3.06006000       1
H               2.72516000      2.44466000     -2.45689000       1
I               3.58711000      2.18660000      1.44856000      53
P               1.07451000     -3.56912000     -2.61381000      15
P               1.01797000      3.60492000      2.64056000      15
I              -3.49527000      1.94757000     -2.58835000      53
H               1.36952000     -2.34816000      4.01820000       1
I              -3.60441000     -1.87129000      2.66786000      53
H               1.51919000      3.15204000     -3.39137000       1
H              -2.45266000     -1.49305000     -3.99143000       1
H              -2.96919000      4.19542000     -1.01677000       1
P               5.42973000     -0.02314950      0.07001740      15
I               0.86469100      5.42482000     -0.07785220      53
I               1.11524000      1.55085000      5.15251000      53
H              -3.59235000     -0.30028300     -4.19039000       1
H              -3.20565000      0.77425300      4.45770000       1
H              -1.77696000      5.28252000     -0.51825500       1
I               0.80892000     -5.57280000     -0.07785220      53
N              -3.02563000     -0.99668700     -4.70634000       7
H              -3.42846000     -4.48299000      0.81652200       1
I               1.10111000     -1.85771000     -5.32561000      53
H              -2.39991000     -0.44816400     -5.33525000       1
I              -5.29372000      2.18660000      1.44856000      53
N              -2.79465000      5.17020000     -0.70589900       7
H              -3.31780000      4.78715000      1.30271000       1
H              -1.83273000     -5.71510000     -0.51825500       1
I               5.27642000     -1.87129000      2.66786000      53
H              -3.11945000     -5.19732000     -1.48652000       1
I               5.38556000      1.94757000     -2.58835000      53
I              -6.01722000     -1.48564000     -1.10218000      53
H              -2.38579000      2.96040000      5.14287000       1
I              -1.59521000      4.98877000      3.79163000      53
C              -3.85891000      1.47252000      4.98560000       6
H               4.43117000      2.05623000      4.27738000       1
H              -4.44966000      2.05623000      4.27738000       1
N              -2.85042000     -5.82742000     -0.70589900       7
C              -3.59622000      5.48924000      0.51395400       6
C              -3.65199000     -5.50838000      0.51395400       6
I              -0.62803800      5.18998000     -4.20078000      53
H              -3.06368000      5.80030000     -1.48652000       1
I              -0.66968500     -2.39907000      6.27734000      53
H               5.28849000     -0.30028300     -4.19039000       1
H               4.22532000      5.38466000      0.26857200       1
H               4.35301000     -2.46951000     -4.80106000       1
N              -3.01151000      2.41188000      5.77178000       7
C              -3.87304000     -1.93605000     -5.49252000       6
H               4.16955000     -5.61296000      0.26857200       1
H              -4.52782000     -2.46951000     -4.80106000       1
I              -1.60934000      1.58021000     -6.68649000      53
H              -6.15567000      2.44466000     -2.45689000       1
H               5.45237000     -4.48299000      0.81652200       1
H              -4.65551000      5.38466000      0.26857200       1
H              -3.37358000     -6.21047000      1.30271000       1
H              -2.43854000      1.91552000      6.48669000       1
H              -6.28274000     -1.70943000      3.06006000       1
I              -0.68380900     -5.80763000     -4.20078000      53
H               4.36713000      0.93906200      5.67706000       1
C               5.02192000      1.47252000      4.98560000       6
P              -3.35732000     -3.76730000      5.19499000      15
I               2.81098000      2.37182000     -6.25219000      53
H               5.67518000      0.77425300      4.45770000       1
I               2.76934000     -5.21723000      4.22593000      53
I               3.71889000     -5.12157000     -3.57872000      53
I              -1.65098000     -6.00884000      3.79163000      53
H              -4.51370000      0.93906200      5.67706000       1
P              -3.31567000      3.82175000     -5.28313000      15
H              -3.21978000     -2.63431000     -6.02042000       1
H               5.91164000      4.19542000     -1.01677000       1
H              -4.71129000     -5.61296000      0.26857200       1
H              -3.37269000      6.51463000      0.81652200       1
H               5.56303000      4.78715000      1.30271000       1
H              -3.02496000     -6.80220000     -1.01677000       1
N               5.85520000     -0.99668700     -4.70634000       7
C               5.22884000     -5.50838000      0.51395400       6
C               5.28461000      5.48924000      0.51395400       6
C               5.00779000     -1.93605000     -5.49252000       6
I               2.82511000      5.78039000      4.22593000      53
H               6.42817000     -1.49305000     -3.99143000       1
H               4.41705000     -1.35234000     -6.20074000       1
H              -4.46378000     -1.35234000     -6.20074000       1
I               7.29275000     -2.08867000     -1.63100000      53
I               3.77466000      5.87604000     -3.57872000      53
H              -3.57822000      3.10828000      6.28773000       1
H               5.76138000     -5.19732000     -1.48652000       1
P               1.00385000      0.19635100     -7.83755000      15
P               0.96219900     -7.39270000      2.64056000      15
P               1.08864000     -0.16055700      7.86431000      15
H               1.46525000     -7.62188000     -1.72556000       1
P               1.13028000      7.42849000     -2.61381000      15
H              -7.78965000      1.02182000     -1.35528000       1
N               6.08618000      5.17020000     -0.70589900       7
I               3.73301000     -1.71301000      6.89940000      53
H               1.39021000     -4.10475000     -6.76403000       1
N              -7.16521000      2.69061000     -2.48295000       7
H              -7.89263000     -1.07681000      1.35457000       1
I              -5.16194000     -5.12157000     -3.57872000      53
N              -7.29196000     -1.63303000      3.29893000       7
I               8.02683000      1.47189000      1.08201000      53
H              -7.35981000      3.37573000     -1.72556000       1
H               5.81715000      5.80030000     -1.48652000       1
H              -7.47650000     -0.69618000      3.71409000       1
H               1.01227000      8.15758000      1.68736000       1
H               5.50726000     -6.21047000      1.30271000       1
H               6.48092000     -0.44816400     -5.33525000       1
N               6.03041000     -5.82742000     -0.70589900       7
H              -7.77750000      0.77907500     -3.13367000       1
H               1.41116000      5.24089000     -6.45992000       1
P               5.52351000     -3.76730000      5.19499000      15
C              -8.01351000      1.47357000     -2.32414000       6
H               1.47754000     -4.43701000      7.08674000       1
H               1.11745000      4.18764000      7.34445000       1
I              -5.10617000      5.87604000     -3.57872000      53
H               5.50814000      6.51463000      0.81652200       1
P               5.56516000      3.82175000     -5.28313000      15
N               5.86932000      2.41188000      5.77178000       7
H              -7.92433000     -2.84003000      1.68736000       1
C              -8.13909000     -1.84709000      2.08864000       6
H               1.46342000     -7.84558000     -3.39137000       1
H               5.66105000     -2.63431000     -6.02042000       1
H              -7.36164000      3.15204000     -3.39137000       1
H               1.35539000     -5.75673000     -6.45992000       1
I              -5.14782000     -1.71301000      6.89940000      53
H               5.30261000      3.10828000      6.28773000       1
H               6.49504000      2.96040000      5.14287000       1
N               1.65985000     -8.30701000     -2.48295000       7
H              -7.51132000     -2.34816000      4.01820000       1
H               7.10387000      5.28252000     -0.51825500       1
N               1.57474000     -5.04160000     -7.17919000       7
P              -7.80632000     -3.56912000     -2.61381000      15
I              -6.06985000      2.37182000     -6.25219000      53
H               5.85587000     -6.80220000     -1.01677000       1
P              -7.86286000      3.60492000      2.64056000      15
H               8.57345000     -1.77122000      2.38321000       1
I              -6.11150000     -5.21723000      4.22593000      53
I              -1.57396000      1.31990000      8.84712000      53
H               7.04810000     -5.71510000     -0.51825500       1
I              -1.53231000      8.90895000     -1.63100000      53
H               8.69923000      1.77473000     -2.37081000       1
H               2.66939000     -8.55295000     -2.45689000       1
H               6.44230000      1.91552000      6.48669000       1
H               2.58397000     -5.11799000     -7.41806000       1
I              -6.05572000      5.78039000      4.22593000      53
C               0.79751000      9.15053000      2.08864000       6
I              -7.76559000      1.55085000      5.15251000      53
N               1.63051000      5.95602000     -7.17919000       7
P              -3.30155000      7.23032000      5.19499000      15
N               1.67398000     -4.89844000      7.99517000       7
H              -0.23737200     -9.22289000     -2.37081000       1
P              -3.37144000     -7.17587000     -5.28313000      15
H              -0.25160800      9.22640000      2.38321000       1
H              -9.06243000      1.77473000     -2.37081000       1
C               0.88144800      4.88214000      8.15397000       6
I               3.53134000     -8.81102000      1.44856000      53
I              -7.77972000     -1.85771000     -5.32561000      53
I               7.28562000      4.98877000      3.79163000      53
H              -0.32150300     -5.17979000     -8.09491000       1
H              -0.16747700      5.18330000      8.10731000       1
I              -0.90977600     -9.52573000      1.08201000      53
I              -0.86812900     -1.93668000     -9.39611000      53
H               1.42529000      8.64946000      4.01820000       1
H              -9.18821000     -1.77122000      2.38321000       1
H              -3.10533000     -1.78875000      8.99160000       1
I              -8.01614000      5.42482000     -0.07785220      53
H               1.44598000      6.89287000     -6.76403000       1
H               1.53331000      6.56060000      7.08674000       1
I               3.57298000     -1.22197000     -9.02956000      53
I              -8.07191000     -5.57280000     -0.07785220      53
H               1.47938000     -4.21332000      8.75256000       1
H               2.63974000      5.87962000     -7.41806000       1
C               0.81155300     -9.52405000     -2.32414000       6
H              -2.44156000     -8.03721000      5.14287000       1
H              -3.33193000      1.37858000     -9.17541000       1
H               2.68351000     -5.14439000      8.02123000       1
I              -9.73484000      1.47189000      1.08201000      53
C               0.72761500     -5.25565000     -8.38948000       6
H              -0.26573200      5.81783000     -8.09491000       1
H              -0.22324800     -5.81432000      8.10731000       1
I               2.87774000      1.92293000      9.37594000      53
I               7.27150000      1.58021000     -6.68649000      53
I               2.91939000      9.51198000     -1.10218000      53
C               9.62257000     -1.84709000      2.08864000       6
H               9.86904000     -1.07681000      1.35457000       1
H               0.99814400      4.74902000     -8.79076000       1
I              -3.55104000     -9.05005000     -2.58835000      53
