200
cutoff_factor=1.20000000 nneightol=1.20000000 Lattice="28.39280000       0.00000000       0.00000000       0.00000000      28.14595000       0.00000000       0.00000000       0.00000000      29.09170000" Properties=species:S:1:pos:R:3:Z:I:1
I               1.31936000     -0.39158400     -0.23349300      53
P              -1.08586000      1.66478000     -0.80583900      15
H               0.01662380     -1.71408000      1.58576000       1
H              -1.30670000     -1.12141000      2.39816000       1
N              -0.60469300     -1.88720000      2.40454000       7
I              -3.09093000     -0.82320700     -1.07146000      53
I              -1.73426000      1.54746000      2.48813000      53
H               1.72369000      2.17084000      2.25068000       1
H               2.74234000      0.69352800      2.31436000       1
H              -0.03639080     -1.78320000      3.26557000       1
H              -1.82306000     -3.27526000      1.38254000       1
C               2.66928000      1.74637000      2.59567000       6
H              -1.57158000     -2.64207000     -2.76002000       1
C              -1.25137000     -3.22966000      2.31240000       6
I               0.88548800      4.14405000     -0.34156200      53
I              -0.51441900      1.80505000     -3.94290000      53
H               3.09291000      0.30676500     -3.10999000       1
P               3.33090000     -2.83771000     -0.77396600      15
H               3.72008000      2.44768000      0.91209700       1
H              -0.46866500     -3.99154000      2.31797000       1
N               3.78258000      2.48612000      1.94589000       7
H               2.76673000      1.86028000      3.67758000       1
H              -1.91096000     -3.35509000      3.17399000       1
I               0.89679100     -4.92892000     -0.34156200      53
H               0.19527400     -2.43743000     -4.39818000       1
C              -1.42287000     -3.42095000     -3.50928000       6
H               3.84845000      1.90906000     -2.84639000       1
H              -4.16498000      2.11718000      2.21258000       1
C               3.69338000      1.09971000     -3.56075000       6
I              -3.58745000      3.69015000     -1.10533000      53
H               2.02221000      2.00993000     -4.43346000       1
H              -0.79135200     -4.21677000     -3.10848000       1
I               1.27536000     -0.41397400      5.26295000      53
I               2.75087000     -2.64675000     -3.93547000      53
I               3.80442000     -3.08366000      2.49008000      53
N              -0.73125800     -2.81725000     -4.68432000       7
H               3.75839000      3.49709000      2.19951000       1
H              -0.47996800      5.08144000      2.31797000       1
H               4.72076000      2.11718000      2.21258000       1
H              -1.31208000     -2.07278000     -5.12555000       1
H              -5.16566000      2.44768000      0.91209700       1
H              -4.23490000      0.70503000     -3.90839000       1
N               2.95111000      1.64562000     -4.73243000       7
H              -0.80265500      4.85621000     -3.10848000       1
H              -2.38269000     -3.82407000     -3.84037000       1
I               5.79481000     -0.82320700     -1.07146000      53
N              -5.10316000      2.48612000      1.94589000       7
P              -1.29409000      1.62910000      5.66374000      15
H              -5.03729000      1.90906000     -2.84639000       1
H               4.65084000      0.70503000     -3.90839000       1
H               2.76269000      0.90465800     -5.43272000       1
H              -1.83437000      5.79772000      1.38254000       1
P              -5.55484000     -2.83771000     -0.77396600      15
C              -5.19236000      1.09971000     -3.56075000       6
C              -1.26267000      5.84331000      2.31240000       6
I              -5.08132000     -3.08366000      2.49008000      53
H              -0.53266500     -3.53069000     -5.41259000       1
I               5.29829000      3.69015000     -1.10533000      53
I              -3.57615000     -5.38282000     -1.10533000      53
H              -5.79283000      0.30676500     -3.10999000       1
H              -5.12735000      3.49709000      2.19951000       1
H              -6.14340000      0.69352800      2.31436000       1
H               3.50289000      2.39372000     -5.20555000       1
C              -1.43417000      5.65202000     -3.50928000       6
H              -1.92227000      5.71789000      3.17399000       1
I               0.65479600      4.19205000      5.34048000      53
I              -3.10448000     -0.97331200      6.07771000      53
H              -2.39399000      5.24890000     -3.84037000       1
C              -6.21646000      1.74637000      2.59567000       6
H               3.76969000     -5.57589000      2.19951000       1
P               3.31960000      6.23526000     -0.77396600      15
P               3.30730000     -2.94127000      5.63717000      15
H              -1.58288000      6.43091000     -2.76002000       1
I               0.66609900     -4.88092000      5.34048000      53
I              -2.99981000     -0.84713900     -6.65593000      53
H              -6.11901000      1.86028000      3.67758000       1
P              -1.18942000      1.75528000     -7.06990000      15
H               1.73499000     -6.90213000      2.25068000       1
I               3.79312000      5.98931000      2.49008000      53
H               0.00532067      7.35889000      1.58576000       1
P              -1.07455000     -7.40819000     -0.80583900      15
I              -7.56638000     -0.39158400     -0.23349300      53
N              -0.61599700      7.18578000      2.40454000       7
I               1.38002000     -0.28780200     -7.47068000      53
I               5.30959000     -5.38282000     -1.10533000      53
H               3.73139000     -6.62529000      0.91209700       1
I               7.15148000      1.54746000      2.48813000      53
I              -6.13487000     -2.64675000     -3.93547000      53
H              -0.54396800      5.54229000     -5.41259000       1
N              -5.93463000      1.64562000     -4.73243000       7
H               2.65802000      0.77848500      7.30091000       1
H              -7.16205000      2.17084000      2.25068000       1
N               3.79388000     -6.58686000      1.94589000       7
N              -0.74256100      6.25572000     -4.68432000       7
H              -5.38285000      2.39372000     -5.20555000       1
H              -5.11605000     -5.57589000      2.19951000       1
H               7.06268000     -3.27526000      1.38254000       1
H               0.18397100      6.63554000     -4.39818000       1
H              -0.04769390      7.28977000      3.26557000       1
I              -3.80536000      3.53398000      6.08057000      53
P               7.79989000      1.66478000     -0.80583900      15
I               2.73957000      6.42622000     -3.93547000      53
H               7.57904000     -1.12141000      2.39816000       1
H              -1.41675000     -2.19895000      7.60809000       1
I              -1.72296000     -7.52551000      2.48813000      53
H              -0.63733200     -3.65686000      7.32105000       1
C               2.68058000     -7.32660000      2.59567000       6
H              -6.12305000      0.90465800     -5.43272000       1
I              -5.09263000      5.98931000      2.49008000      53
H               7.31416000     -2.64207000     -2.76002000       1
I              -0.50311600     -7.26792000     -3.94290000      53
P               3.41197000     -2.81510000     -7.09646000      15
H               6.97478000     -3.35509000      3.17399000       1
P              -5.56615000      6.23526000     -0.77396600      15
H              -4.15368000     -6.95579000      2.21258000       1
H              -1.31800000      7.95156000      2.39816000       1
H              -6.86353000      2.00993000     -4.43346000       1
H              -5.15435000     -6.62529000      0.91209700       1
I               5.78126000     -0.97331200      6.07771000      53
I              -3.70069000      3.66016000     -6.65307000      53
P              -5.57844000     -2.94127000      5.63717000      15
H               6.50305000     -3.82407000     -3.84037000       1
N              -5.09186000     -6.58686000      1.94589000       7
H               2.77804000     -7.21270000      3.67758000       1
H               3.39822000      2.26754000      7.52808000       1
H               2.03351000     -7.06305000     -4.43346000       1
I               0.75946200      4.31822000     -7.39316000      53
C               7.63437000     -3.22966000      2.31240000       6
N              -0.83592400     -2.94342000      8.04932000       7
H               3.85976000     -7.16391000     -2.84639000       1
N               2.84645000      1.51945000      8.00121000       7
I               5.08038000      3.53398000      6.08057000      53
H               4.73206000     -6.95579000      2.21258000       1
H               0.09060780     -2.56361000      8.33546000       1
H               1.91754000      1.88375000      8.30018000       1
H              -1.32339000      7.00019000     -5.12555000       1
I               1.30806000      8.68139000     -0.23349300      53
I               0.77076500     -4.75475000     -7.39316000      53
N               8.28105000     -1.88720000      2.40454000       7
I              -3.10223000      8.24977000     -1.07146000      53
I               5.88593000     -0.84713900     -6.65593000      53
C               7.46287000     -3.42095000     -3.50928000       6
P               3.29600000      6.13170000      5.63717000      15
I              -0.61908600      1.67888000      8.79073000      53
I              -8.00025000      4.14405000     -0.34156200      53
I              -3.79406000     -5.53899000      6.08057000      53
H               2.75364000     -8.37945000      2.31436000       1
H              -0.64863500      5.41612000      7.32105000       1
H               3.51419000     -6.67926000     -5.20555000       1
H              -8.86912000     -1.71408000      1.58576000       1
H               6.49175000      5.24890000     -3.84037000       1
I               5.18505000      3.66016000     -6.65307000      53
H              -5.02599000     -7.16391000     -2.84639000       1
H               8.90237000     -1.71408000      1.58576000       1
H               7.05137000      5.79772000      1.38254000       1
I              -7.61038000     -0.41397400      5.26295000      53
N               2.96242000     -7.42735000     -4.73243000       7
I              -3.68939000     -5.41282000     -6.65307000      53
H               7.57366000     -2.07278000     -5.12555000       1
I              -7.98895000     -4.92892000     -0.34156200      53
P              -5.47378000     -2.81510000     -7.09646000      15
I               8.37132000      1.80505000     -3.94290000      53
P              -1.28278000     -7.44387000      5.66374000      15
C               3.70468000     -7.97326000     -3.56075000       6
H               6.96348000      5.71789000      3.17399000       1
I               1.33067000     -9.46456000     -0.23349300      53
H              -5.48752000      2.26754000      7.52808000       1
I               2.64621000     -2.77292000      8.79817000      53
H               8.41708000     -3.99154000      2.31797000       1
H               8.84935000     -1.78320000      3.26557000       1
P               7.59165000      1.62910000      5.66374000      15
H               0.06827560     -1.65703000     -9.46806000       1
H              -6.22772000      0.77848500      7.30091000       1
H               8.09439000     -4.21677000     -3.10848000       1
H              -8.92213000     -1.78320000      3.26557000       1
I               5.09169000     -5.53899000      6.08057000      53
H               2.87140000      1.98645000     -9.05605000       1
I              -6.14617000      6.42622000     -3.93547000      53
H               3.10421000     -8.76621000     -3.10999000       1
N               8.15448000     -2.81725000     -4.68432000       7
H              -4.33957000      0.57885700      8.82524000       1
C               7.62307000      5.84331000      2.31240000       6
C               3.58871000      0.97353800      9.17288000       6
H               8.08309000      4.85621000     -3.10848000       1
H               4.54617000      0.57885700      8.82524000       1
C              -6.20516000     -7.32660000      2.59567000       6
N              -9.49043000     -1.88720000      2.40454000       7
C               7.45157000      5.65202000     -3.50928000       6
C              -1.52753000     -3.54712000      9.22435000       6
H              -5.37155000     -6.67926000     -5.20555000       1
I               5.19635000     -5.41282000     -6.65307000      53
P              -5.58975000      6.13170000      5.63717000      15
H              -8.69047000     -2.43743000     -4.39818000       1
H              -2.48736000     -3.95025000      8.89327000       1
P               3.40066000      6.25788000     -7.09646000      15
H               2.98824000      0.18059300      9.62364000       1
H               8.40577000      5.08144000      2.31797000       1
H               7.30286000      6.43091000     -2.76002000       1
I               5.78351000      8.24977000     -1.07146000      53
N              -6.03929000      1.51945000      8.00121000       7
