200
cutoff_factor=1.20000000 nneightol=1.20000000 Lattice="29.26841000       0.00000000       0.00000000       0.00000000      29.29289000       0.00000000       0.00000000       0.00000000      28.41288000" Properties=species:S:1:pos:R:3:Z:I:1
I               1.00606000     -0.99438600     -0.23959100      53
H              -0.36667600      2.94033000     -1.34864000       1
P              -1.62123000     -2.49639000     -1.32874000      15
H              -2.48560000      1.72870000     -1.24921000       1
H              -1.93286000     -1.02314000      2.55808000       1
P               2.86711000      1.17849000      1.32027000      15
H               2.43516000     -0.84576800     -2.30974000       1
I              -3.51520000     -0.30107900      0.05262140      53
I               0.26438400      2.56771000      2.51510000      53
H              -1.33374000      3.37392000      0.10073000       1
C              -1.27367000      3.43046000     -0.98787500       6
H               0.14161000     -0.91534900      3.83672000       1
H              -0.64144100      0.55297300      3.85659000       1
N              -2.45525000      2.72244000     -1.55981000       7
N              -0.71390400     -0.43783100      4.17380000       7
C              -1.95325000     -1.07807000      3.64840000       6
I              -1.64685000     -0.61922700     -3.91960000      53
I               2.85450000      3.05335000     -1.28292000      53
N               3.11128000     -0.88075700     -3.10614000       7
H              -2.46333000      2.75408000     -2.60145000       1
H               2.79133000     -3.63749000      0.12339800       1
H              -3.34914000      3.14679000     -1.24972000       1
H               1.57914000     -4.35274000      1.23711000       1
H               1.96156000      0.33907300     -4.38071000       1
H              -1.30487000      4.47110000     -1.31595000       1
H               3.84936000     -0.18566400     -2.93372000       1
I              -1.79343000     -4.33361000      1.30639000      53
I               2.91739000     -0.89725200      3.79407000      53
H              -1.96752000     -2.11912000      3.97629000       1
H              -2.81681000     -0.53853000      4.04378000       1
H               1.65669000     -1.42134000     -4.53523000       1
H               3.55574000     -1.82608000     -3.06916000       1
C               2.41997000     -0.65045000     -4.40744000       6
C               2.61077000     -4.40301000      0.88129800       6
H               3.33406000     -3.21861000      2.46197000       1
H              -0.67719600     -0.46480200      5.21511000       1
I               0.23598100     -4.55018000     -2.92256000      53
I               5.43263000     -0.30107900      0.05262140      53
N               3.52149000     -4.14829000      2.03606000       7
H              -5.09847000     -0.18566400     -2.93372000       1
I              -4.22986000      3.29068000      2.82562000      53
H               2.83023000     -5.39531000      0.48168700       1
H               3.16081000     -0.71016900     -5.20574000       1
I               0.95362700      2.78381000     -5.56035000      53
H               2.83474000      5.61268000      0.48168700       1
P              -6.08072000      1.17849000      1.32027000      15
H              -4.42800000     -4.20186000      1.74669000       1
I              -4.27523000     -3.99149000     -2.47098000      53
P              -1.57097000      4.75171000      3.94523000      15
I               4.71797000      3.29068000      2.82562000      53
H               4.51984000     -4.20186000      1.74669000       1
H              -5.39209000     -1.82608000     -3.06916000       1
H               3.37045000     -4.86661000      2.77013000       1
H               5.59870000      3.14679000     -1.24972000       1
H               1.75619000      2.11803000      5.94774000       1
I               4.67260000     -3.99149000     -2.47098000      53
H              -0.77669200     -4.00418000     -5.26786000       1
N              -5.83656000     -0.88075700     -3.10614000       7
H              -1.30937000     -6.53689000     -1.31595000       1
H               6.46223000      1.72870000     -1.24921000       1
H               3.26030000      2.82921000      5.27723000       1
P               2.80451000      4.83609000     -3.92559000      15
P              -1.67046000      1.21233000     -6.53774000      15
I               1.04862000     -4.68480000      4.92262000      53
I              -3.53914000      3.28018000     -4.94867000      53
H              -5.61377000     -3.21861000      2.46197000       1
I              -6.09333000      3.05335000     -1.28292000      53
H               1.58364000      6.65525000      1.23711000       1
H              -6.51267000     -0.84576800     -2.30974000       1
I              -1.78893000      6.67438000      1.30639000      53
I               0.24048300      6.45781000     -2.92256000      53
N              -5.42634000     -4.14829000      2.03606000       7
H              -6.15651000     -3.63749000      0.12339800       1
C               2.61527000      6.60498000      0.88129800       6
I              -6.03044000     -0.89725200      3.79407000      53
C               2.51947000      2.88893000      6.07553000       6
N               6.49258000      2.72244000     -1.55981000       7
H              -0.74093600     -2.98641000     -6.62638000       1
I              -1.54735000      2.92015000      6.56337000      53
H               6.13103000     -0.53853000      4.04378000       1
N              -0.81340000     -3.97721000     -6.30917000       7
H               6.48450000      2.75408000     -2.60145000       1
H               2.06106000      3.87845000      6.10226000       1
H               3.37495000      6.14137000      2.77013000       1
H               7.01498000     -1.02314000      2.55808000       1
P              -1.57547000     -6.25628000      3.94523000      15
I               0.33547600     -1.01080000      7.56041000      53
P               2.89950000     -2.63252000      6.55738000      15
C              -1.27817000     -7.57753000     -0.98787500       6
I              -3.44415000     -4.18844000      5.53430000      53
H              -1.33824000     -7.63407000      0.10073000       1
C              -6.33706000     -4.40301000      0.88129800       6
H              -5.78702000     -0.71016900     -5.20574000       1
P               2.80000000     -6.17190000     -3.92559000      15
P               7.32660000     -2.49639000     -1.32874000      15
H               2.79583000      7.37050000      0.12339800       1
C              -6.52786000     -0.65045000     -4.40744000       6
H              -5.57738000     -4.86661000      2.77013000       1
C               6.99458000     -1.07807000      3.64840000       6
N               3.52600000      6.85969000      2.03606000       7
H               0.04211420     -4.45473000     -6.64625000       1
I              -7.94177000     -0.99438600     -0.23959100      53
I               0.16488800     -0.97166500     -7.96787000      53
I               5.40869000      3.28018000     -4.94867000      53
I               1.05312000      6.32319000      4.92262000      53
H              -2.91630000     -4.07791000     -6.43919000       1
H              -6.11760000     -5.39531000      0.48168700       1
H              -0.37117800     -8.06766000     -1.34864000       1
H              -6.98627000      0.33907300     -4.38071000       1
H              -5.68753000      2.82921000      5.27723000       1
H              -4.42349000      6.80613000      1.74669000       1
H               6.98031000     -2.11912000      3.97629000       1
I               7.30098000     -0.61922700     -3.91960000      53
H              -6.11310000      5.61268000      0.48168700       1
H               7.61409000      3.37392000      0.10073000       1
H               4.52434000      6.80613000      1.74669000       1
H               3.65524000      1.71330000      7.41381000       1
C               7.67417000      3.43046000     -0.98787500       6
I               7.15440000     -4.33361000      1.30639000      53
N               3.21077000      2.65862000      7.37683000       7
C              -2.05275000     -4.61745000     -6.83457000       6
I               2.81790000     -4.43663000     -6.68890000      53
I               2.85000000     -7.95464000     -1.28292000      53
I              -4.27073000      7.01650000     -2.47098000      53
H              -3.35364000     -7.86120000     -1.24972000       1
H              -7.36869000     -4.35274000      1.23711000       1
H              -2.06251000      5.34949000     -6.50668000       1
H              -7.29114000     -1.42134000     -4.53523000       1
H              -5.57288000      6.14137000      2.77013000       1
P              -6.14333000      4.83609000     -3.92559000      15
P              -1.61673000      8.51160000     -1.32874000      15
H               3.27546000      2.60200000     -7.71284000       1
N              -2.45976000     -8.28554000     -1.55981000       7
I               4.67710000      7.01650000     -2.47098000      53
H              -0.77219000      7.00381000     -5.26786000       1
I              -4.32936000     -0.24869800     -7.65735000      53
I               0.25988200     -8.44028000      2.51510000      53
H               3.33856000      7.78938000      2.46197000       1
I               5.50368000     -4.18844000      5.53430000      53
H              -2.06702000     -5.65850000     -6.50668000       1
I               4.61847000     -0.24869800     -7.65735000      53
H               7.64296000      4.47110000     -1.31595000       1
H               2.53465000      2.69361000      8.17323000       1
N              -5.42184000      6.85969000      2.03606000       7
H              -2.46783000     -8.25391000     -2.60145000       1
I              -4.17574000     -0.45210900      8.01199000      53
H               3.94886000      3.35371000      7.54925000       1
H               8.58116000      2.94033000     -1.34864000       1
H               8.30639000      0.55297300      3.85659000       1
C              -6.33256000      6.60498000      0.88129800       6
N               8.23393000     -0.43783100      4.17380000       7
I              -4.23437000     -7.71731000      2.82562000      53
H              -5.29260000      1.71330000      7.41381000       1
P              -6.04833000     -2.63252000      6.55738000      15
C              -6.42836000      2.88893000      6.07553000       6
H               0.04661630      6.55326000     -6.64625000       1
I               4.77210000     -0.45210900      8.01199000      53
P              -1.52173000      1.04299000      9.15423000      15
H              -2.03235000     -4.56252000     -7.92489000       1
I              -8.68345000      2.56771000      2.51510000      53
I              -3.43965000      6.81955000      5.53430000      53
I               4.71347000     -7.71731000      2.82562000      53
N              -0.80889800      7.03078000     -6.30917000       7
H              -2.36834000     -4.71453000      7.88152000       1
P              -6.14783000     -6.17190000     -3.92559000      15
H              -7.19164000      2.11803000      5.94774000       1
C              -2.04825000      6.39054000     -6.83457000       6
H              -6.15200000      7.37050000      0.12339800       1
H               2.05655000     -7.12954000      6.10226000       1
P               7.37687000      4.75171000      3.94523000      15
H               3.23907000      4.25000000     -8.02100000       1
H              -8.80622000     -0.91534900      3.83672000       1
H              -4.99897000      3.35371000      7.54925000       1
H              -2.49010000     -9.27929000     -1.24921000       1
N               3.42650000      3.32032000     -8.44691000       7
N              -5.73706000      2.65862000      7.37683000       7
H               6.03153000     -4.07791000     -6.43919000       1
H              -1.20988000     -2.99751000      9.16702000       1
H               5.59420000     -7.86120000     -1.24972000       1
H               8.27064000     -0.46480200      5.21511000       1
I               2.82240000      6.57136000     -6.68890000      53
I              -3.54364000     -7.72781000     -4.94867000      53
P               7.27737000      1.21233000     -6.53774000      15
P               2.76761000     -2.36089000     -9.16270000      15
H              -9.31451000      2.94033000     -1.34864000       1
H               1.48415000      3.11587000     -9.24586000       1
I               7.15890000      6.67438000      1.30639000      53
I              -1.88843000      3.13500000     -9.17658000      53
I               9.21222000      2.56771000      2.51510000      53
H              -2.91180000      6.93008000     -6.43919000       1
H               9.08944000     -0.91534900      3.83672000       1
H              -5.60927000      7.78938000      2.46197000       1
H              -5.67238000      2.60200000     -7.71284000       1
H              -1.96302000      8.88887000      3.97629000       1
I               0.94912400     -8.22418000     -5.56035000      53
H              -6.88678000      3.87845000      6.10226000       1
H              -7.36419000      6.65525000      1.23711000       1
I               9.95390000     -0.99438600     -0.23959100      53
I               1.01057000     10.01360000     -0.23959100      53
I              -6.12993000     -4.43663000     -6.68890000      53
