200
cutoff_factor=1.20000000 nneightol=1.20000000 Lattice="28.44281000       0.00000000       0.00000000       0.00000000      28.71053000       0.00000000       0.00000000       0.00000000      29.11566000" Properties=species:S:1:pos:R:3:Z:I:1
P              -0.65535300     -0.16177300      0.00998074      15
I               1.89567000      1.78492000     -0.35401200      53
I               1.09417000     -2.80696000      0.49852200      53
I              -0.58998900      0.56789000      3.12943000      53
I              -0.68312600     -0.63192000     -3.17651000      53
I              -2.68896000      2.38660000     -0.45563800      53
H               2.73491000      0.49484600      2.41940000       1
I              -3.36749000     -1.96974000      0.28641500      53
H               3.42168000      0.48815600     -1.90311000       1
H              -0.93557500      3.04630000      2.53944000       1
H              -0.18909900      2.92026000     -3.30467000       1
H              -0.49054100      4.04454000     -1.93884000       1
H              -3.96196000      0.77232100     -2.22645000       1
H              -0.29376400     -3.07785000     -3.49327000       1
C               3.52211000      0.45136300      3.17519000       6
H              -0.73874800     -4.46070000      1.75349000       1
N               4.25624000      0.09567070     -2.39098000       7
H              -0.67229500      4.52974000      1.75349000       1
H              -4.46298000     -0.78157800     -1.90367000       1
N              -1.09323000      4.07613000      2.58944000       7
C              -0.61040000      3.88501000     -3.01279000       6
H               4.52531000     -0.78157800     -1.90367000       1
H               3.15963000     -1.55862000      3.62562000       1
H               3.17896000     -0.82400300     -3.95605000       1
H              -0.73604900     -3.30213000      3.87437000       1
H               4.34778000     -1.33613000      2.43128000       1
N               3.95565000     -0.96583700      3.32376000       7
H               3.14608000      0.80145200      4.13879000       1
N              -4.73205000      0.09567070     -2.39098000       7
H               4.38546000      1.04280000      2.86279000       1
H              -0.55699400     -4.94589000     -1.93884000       1
H              -2.12256000      4.21764000      2.58850000       1
H              -1.66482000      3.94213000     -3.29236000       1
H              -4.64050000     -1.33613000      2.43128000       1
H               1.07216000     -4.04426000     -3.47430000       1
N               0.06134550     -4.03124000     -3.73074000       7
H              -4.60283000      1.04280000      2.86279000       1
H               5.02633000      0.77232100     -2.22645000       1
C               4.00933000     -0.12290000     -3.84591000       6
N              -1.15968000     -4.91430000      2.58944000       7
H               3.76267000      0.83824900     -4.30121000       1
P               3.78308000      4.38602000     -0.03335870      15
C              -0.55137000     -4.37803000      3.83561000       6
H              -2.18902000     -4.77280000      2.58850000       1
H               0.58832000      4.41012000      3.81059000       1
H              -5.56660000      0.48815600     -1.90311000       1
P               3.71662000     -4.60441000     -0.03335870      15
H              -4.06972000     -0.53295400     -4.29036000       1
I               5.62079000     -1.96974000      0.28641500      53
C              -0.67685400     -5.10542000     -3.01279000       6
H               0.52186700     -4.58031000      3.81059000       1
H              -4.29723000     -1.06774000      4.05541000       1
C              -0.48491700      4.61241000      3.83561000       6
N              -5.03263000     -0.96583700      3.32376000       7
H               1.13861000      4.94618000     -3.47430000       1
N               0.12779900      4.95919000     -3.73074000       7
I               3.55738000     -3.99168000     -3.16422000      53
H              -1.73127000     -5.04830000     -3.29236000       1
H               4.69105000     -1.06774000      4.05541000       1
C              -4.97895000     -0.12290000     -3.84591000       6
H              -0.94794200      4.11371000      4.68966000       1
I               1.16062000      6.18347000      0.49852200      53
H               0.00785700     -4.15474000     -4.75278000       1
C              -5.46617000      0.45136300      3.17519000       6
P              -0.48599900      0.09105350      6.32946000      15
P              -0.65817400      0.02739220     -6.38134000      15
H              -1.00203000     -5.94413000      2.53944000       1
H               4.91856000     -0.53295400     -4.29036000       1
I               1.66739000     -2.29766000      5.90385000      53
I               4.24143000      4.08255000      3.15236000      53
I               1.70929000      2.16135000     -6.10296000      53
H              -6.25337000      0.49484600      2.41940000       1
I               6.29932000      2.38660000     -0.45563800      53
H               0.07431010      4.83569000     -4.75278000       1
P              -5.20520000      4.38602000     -0.03335870      15
H              -5.22561000      0.83824900     -4.30121000       1
H              -1.01440000     -4.87673000      4.68966000       1
H              -0.22731100      5.91259000     -3.49327000       1
I              -2.71856000      2.38943000     -5.88515000      53
H              -0.66959500      5.68830000      3.87437000       1
H              -0.25555200     -6.07018000     -3.30467000       1
I               3.62383000      4.99876000     -3.16422000      53
I              -2.87225000     -2.05234000      5.98357000      53
P              -5.27166000     -4.60441000     -0.03335870      15
I              -4.74685000      4.08255000      3.15236000      53
H              -5.82865000     -1.55862000      3.62562000       1
H              -5.80932000     -0.82400300     -3.95605000       1
I              -2.75541000     -6.60383000     -0.45563800      53
I               4.17498000     -4.90788000      3.15236000      53
H              -5.84220000      0.80145200      4.13879000       1
I               1.88147000      2.22501000      6.60784000      53
I              -7.09261000      1.78492000     -0.35401200      53
I               1.49521000     -2.36132000     -6.80695000      53
I               1.82922000     -7.20551000     -0.35401200      53
I              -5.43090000     -3.99168000     -3.16422000      53
I              -4.81330000     -4.90788000      3.15236000      53
I              -3.04443000     -2.11600000     -6.72723000      53
I              -2.54638000      2.45309000      6.82565000      53
I              -3.30104000      7.02070000      0.28641500      53
I              -5.36445000      4.99876000     -3.16422000      53
P               8.33293000     -0.16177300      0.00998074      15
I              -7.89412000     -2.80696000      0.49852200      53
H               6.86572000      4.21764000      2.58850000       1
P               3.93922000      4.43261000     -6.33398000      15
H               6.79926000     -4.77280000      2.58850000       1
P               3.87277000     -4.55782000     -6.33398000      15
P               4.04494000     -4.49416000      6.37682000      15
I               6.11603000     -2.05234000      5.98357000      53
P               4.11140000      4.49627000      6.37682000      15
P              -0.58890000      8.82866000      0.00998074      15
H               3.22608000      7.43182000      3.62562000       1
I               8.30516000     -0.63192000     -3.17651000      53
I               6.26972000      2.38943000     -5.88515000      53
H               7.32347000      3.94213000     -3.29236000       1
H               0.18003200     -4.09108000      7.95802000       1
I              -0.61667200      8.35851000     -3.17651000      53
H               8.05271000      3.04630000      2.53944000       1
I               8.39829000      0.56789000      3.12943000      53
I              -0.65644200     -8.42254000      3.12943000      53
I               5.68724000      7.02070000      0.28641500      53
H              -1.12012000      4.05005000     -8.02114000       1
I               1.73384000      6.69278000      5.90385000      53
I               6.23287000     -6.60383000     -0.45563800      53
H               2.97390000      0.73779100     -8.57201000       1
H               4.41423000      7.65431000      2.43128000       1
P              -0.72180600     -9.15221000      0.00998074      15
P              -4.87688000      4.49627000      6.37682000      15
I               5.94386000     -2.11600000     -6.72723000      53
H               2.66846000     -8.49559000      2.41940000       1
P              -5.04906000      4.43261000     -6.33398000      15
P              -4.94334000     -4.49416000      6.37682000      15
H              -4.57405000      7.65431000      2.43128000       1
N               7.89505000      4.07613000      2.58944000       7
I              -2.78501000     -6.60100000     -5.88515000      53
H              -3.89755000     -0.46929300      8.42044000       1
I               1.64284000     -6.82909000     -6.10296000      53
H               3.93485000      0.90191000      8.40959000       1
P              -5.11551000     -4.55782000     -6.33398000      15
H               3.35523000     -8.50228000     -1.90311000       1
H               0.24648500      4.89935000      7.95802000       1
H               3.35114000     -0.76034100      8.75475000       1
H              -4.02841000     -8.21811000     -2.22645000       1
H               7.25701000     -5.04830000     -3.29236000       1
H               4.31900000     -7.94764000      2.86279000       1
H              -1.18657000     -4.94039000     -8.02114000       1
H              -0.90822400     -3.36579000     -8.83643000       1
H              -4.39652000      8.20886000     -1.90367000       1
H               8.24953000     -4.46070000      1.75349000       1
H              -7.91612000     -4.04426000     -3.47430000       1
I              -0.51095000     -0.56825900      9.53429000      53
N               4.02210000      8.02460000      3.32376000       7
I              -2.80580000      6.93809000      5.98357000      53
H               4.59176000      8.20886000     -1.90367000       1
N               7.82860000     -4.91430000      2.58944000       7
H               8.49774000      4.04454000     -1.93884000       1
I              -0.76216500      0.50422900     -9.58137000      53
I               1.56167000      6.62912000     -6.80695000      53
I               1.81502000     -6.76543000      6.60784000      53
H               8.31599000      4.52974000      1.75349000       1
H               3.24542000      8.16643000     -3.95605000       1
P              -9.64363000     -0.16177300      0.00998074      15
H              -4.66928000     -7.94764000      2.86279000       1
H               3.07962000     -8.18898000      4.13879000       1
I              -7.32089000     -2.29766000      5.90385000      53
H               8.25223000     -3.30213000      3.87437000       1
H              -0.12158900     -3.01418000      9.21753000       1
H               2.98746000     -1.62228000     -9.08518000       1
I               6.44190000      2.45309000      6.82565000      53
C               8.37788000      3.88501000     -3.01279000       6
I              -7.27899000      2.16135000     -6.10296000      53
C               3.45566000     -8.53907000      3.17519000       6
C               4.18151000     -0.05923830      8.86489000       6
I              -2.61284000     -6.53734000      6.82565000      53
H              -4.46941000     -1.13140000     -8.65539000       1
N               0.23352100     -3.96758000      8.98006000       7
H               4.51887000     -1.13140000     -8.65539000       1
H               8.79918000      2.92026000     -3.30467000       1
H               5.09073000     -0.46929300      8.42044000       1
H              -5.05344000      0.90191000      8.40959000       1
H               4.95987000     -8.21811000     -2.22645000       1
H              -4.23078000      7.92269000      4.05541000       1
H               8.69452000     -3.07785000     -3.49327000       1
H              -0.01692340      2.98392000      9.40613000       1
H              -7.84967000      4.94618000     -3.47430000       1
H               0.41614500      4.34646000     -8.90021000       1
H               3.69622000     -8.15219000     -4.30121000       1
C              -0.72354600     -4.44169000     -8.87519000       6
I              -7.10681000      2.22501000      6.60784000      53
H               8.43129000     -4.94589000     -1.93884000       1
I              -7.82766000      6.18347000      0.49852200      53
C              -0.65709300      4.54874000     -8.87519000       6
N              -4.96618000      8.02460000      3.32376000       7
H               0.34969200     -4.64397000     -8.90021000       1
I              -2.97797000      6.87443000     -6.72723000      53
I              -0.52353600      9.55832000      3.12943000      53
H              -5.76220000      7.43182000      3.62562000       1
C              -4.80677000     -0.05923830      8.86489000       6
H               4.75750000      7.92269000      4.05541000       1
I              -9.57827000      0.56789000      3.12943000      53
C               3.34994000      0.38770200     -9.53561000       6
