200
cutoff_factor=1.20000000 nneightol=1.20000000 Lattice="29.21224000       0.00000000       0.00000000       0.00000000      29.84829000       0.00000000       0.00000000       0.00000000      28.27678000" Properties=species:S:1:pos:R:3:Z:I:1
H               0.13993700      1.11219000      0.46678800       1
I               1.14732000     -1.04850000     -0.31021400      53
N              -0.15423300      2.08601000      0.69887100       7
H              -0.71739400      2.41485000     -0.11312800       1
H              -0.72683100     -1.24300000     -2.40960000       1
H               0.71698700      2.63717000      0.78705800       1
H              -1.86531000      1.52175000      1.79923000       1
C              -0.95486300      2.10409000      1.95837000       6
H              -0.35372200      1.66072000      2.75458000       1
P              -0.54470000     -3.23216000      1.33517000      15
I              -3.26496000     -1.77358000      0.21478100      53
I              -2.36237000      2.01244000     -2.16945000      53
N              -1.04492000     -1.82223000     -3.21058000       7
H              -1.19875000      3.13964000      2.19720000       1
P               3.85712000      0.46909600     -1.28734000      15
H              -0.89094600     -2.81456000     -2.93807000       1
I              -0.83097200     -1.38449000      3.94283000      53
H              -2.06381000     -1.67193000     -3.35730000       1
I               2.00909000      2.47757000     -2.91428000      53
I               3.57970000      2.36407000      1.28124000      53
H               0.79202100     -1.64061000     -4.23486000       1
C              -0.26885500     -1.48029000     -4.44020000       6
H              -0.45662500     -0.43322300     -4.68767000       1
H               3.73862000     -0.25782200      3.28600000       1
H               2.52025000     -1.20682000      4.20188000       1
I              -0.49751900     -4.98745000     -1.35530000      53
P              -5.02709000      0.46909600     -1.28734000      15
H               2.85933000     -4.19544000     -1.99422000       1
C               3.56350000     -0.88523600      4.16286000       6
H              -3.44918000     -1.83916000      3.99662000       1
I               2.10389000     -4.59152000      2.43772000      53
P              -0.57546200      4.03897000     -3.92259000      15
H              -0.60232000     -2.13171000     -5.25099000       1
H              -4.22872000     -4.05034000     -0.38305900       1
I               5.61925000     -1.77358000      0.21478100      53
H               4.17572000     -2.64746000      3.21558000       1
I               1.23997000      2.68518000      5.11681000      53
I              -5.30451000      2.36407000      1.28124000      53
I               4.21462000     -1.33864000     -3.98460000      53
H               3.42161000     -4.97150000      0.24743800       1
H               2.89944000      5.02175000     -1.91789000       1
H              -5.14559000     -0.25782200      3.28600000       1
H               4.65549000     -4.05034000     -0.38305900       1
I              -0.57024700      6.01704000     -1.35530000      53
I              -4.66959000     -1.33864000     -3.98460000      53
H              -4.70849000     -2.64746000      3.21558000       1
N               4.42818000     -2.09873000      4.05740000       7
H               3.83049000     -0.34961000      5.07637000       1
N              -4.45603000     -2.09873000      4.05740000       7
C               3.52959000     -5.04733000     -1.85836000       6
N               4.14608000     -4.95329000     -0.50157700       7
I              -2.45108000     -5.37565000      2.69653000      53
I              -3.20243000      2.05750000      5.40914000      53
P              -0.67139000      0.51672200      6.56103000      15
H              -4.15246000      5.27736000     -0.32097100       1
I              -2.52381000      5.62884000      2.69653000      53
C              -5.32071000     -0.88523600      4.16286000       6
P               3.80245000      4.12643000      3.94650000      15
N              -4.73813000     -4.95329000     -0.50157700       7
H               3.34888000      6.03299000      0.24743800       1
I              -0.73504400      2.13776000     -6.54080000      53
H               2.97217000     -5.98274000     -1.91789000       1
H               5.43503000     -1.83916000      3.99662000       1
H              -0.55255300     -3.95547000      5.79596000       1
H              -4.07973000     -5.72713000     -0.32097100       1
H               4.29502000     -2.72342000      4.87843000       1
H               4.73175000      5.27736000     -0.32097100       1
H               4.32805000     -5.02760000     -2.60169000       1
C               3.45687000      5.95716000     -1.85836000       6
I               2.03116000      6.41297000      2.43772000      53
I               6.52184000      2.01244000     -2.16945000      53
H               4.39095000      0.79882800     -5.60520000       1
H              -5.05372000     -0.34961000      5.07637000       1
H               2.61618000      2.31543000     -6.28175000       1
H              -4.49326000      0.79882800     -5.60520000       1
H              -4.58919000     -2.72342000      4.87843000       1
H              -4.55616000     -5.02760000     -2.60169000       1
N               4.07335000      6.05120000     -0.50157700       7
I               1.40862000     -4.79706000     -5.36682000      53
H              -5.46260000     -4.97150000      0.24743800       1
H               3.92642000      3.17264000     -5.40726000       1
H               7.01889000      1.52175000      1.79923000       1
H               4.80448000     -5.72713000     -0.32097100       1
H              -3.35325000      1.68309000     -6.48701000       1
H              -0.77097600      5.35053000      5.23263000       1
C              -5.35461000     -5.04733000     -1.85836000       6
H              -6.02487000     -4.19544000     -1.99422000       1
H               2.78661000      6.80905000     -1.99422000       1
P              -5.08176000      4.12643000      3.94650000      15
H              -6.36396000     -1.20682000      4.20188000       1
H              -0.69824800     -5.65396000      5.23263000       1
N              -4.81086000      6.05120000     -0.50157700       7
C               3.65942000      2.63701000     -6.32076000       6
H               6.82040000     -1.67193000     -3.35730000       1
H               4.25532000      5.97689000     -2.60169000       1
I              -7.73689000     -1.04850000     -0.31021400      53
C              -0.36478300     -5.00254000      6.04342000       6
I              -6.87512000      2.47757000     -2.91428000      53
I               1.91316000     -1.04468000      7.56934000      53
N              -4.36010000      1.42352000     -6.42623000       7
P              -0.61742900      7.77233000      1.33517000      15
N               4.52411000      1.42352000     -6.42623000       7
H              -4.95779000      3.17264000     -5.40726000       1
H              -4.62889000      5.97689000     -2.60169000       1
P              -0.50273300     -6.96552000     -3.92259000      15
I              -3.03377000     -5.42474000     -5.07448000      53
H              -5.98477000      5.02175000     -1.91789000       1
I               5.68178000      2.05750000      5.40914000      53
H               0.69609300     -5.16286000      6.24876000       1
I              -3.10650000      5.57975000     -5.07448000      53
H              -4.30145000      6.95415000     -0.38305900       1
H              -5.53533000      6.03299000      0.24743800       1
H              -1.12602000     -7.86485000      2.19720000       1
C              -5.42734000      5.95716000     -1.85836000       6
I               1.33590000      6.20743000     -5.36682000      53
H               4.58276000      6.95415000     -0.38305900       1
I              -2.35515000     -1.85340000     -7.78710000      53
P               3.97111000     -3.35581000     -6.53712000      15
I               2.19981000     -1.06927000     -8.04590000      53
C               7.92935000      2.10409000      1.95837000       6
H               0.78971500     -8.36732000      0.78705800       1
H               4.27165000      0.87478800     -7.26804000       1
H               8.16681000      2.41485000     -0.11312800       1
C              -0.43751200      6.00195000      6.04342000       6
I              -6.78032000     -4.59152000      2.43772000      53
H               0.62336500      5.84163000      6.24876000       1
H               7.68546000      3.13964000      2.19720000       1
H               8.15738000     -1.24300000     -2.40960000       1
C              -5.22479000      2.63701000     -6.32076000       6
H              -0.64466600     -8.58964000     -0.11312800       1
H              -8.16722000      2.63717000      0.78705800       1
H              -5.91204000     -5.98274000     -1.91789000       1
H              -4.61256000      0.87478800     -7.26804000       1
N               7.83929000     -1.82223000     -3.21058000       7
H               5.53096000      1.68309000     -6.48701000       1
H              -0.96367500      8.18993000     -2.93807000       1
H               3.83455000      3.26443000     -7.19763000       1
I              -2.45830000     -1.50981000      8.31418000      53
I               6.43313000     -5.37565000      2.69653000      53
P               3.87518000     -6.87806000      3.94650000      15
H              -8.74427000      1.11219000      0.46678800       1
P              -4.91310000     -3.35581000     -6.53712000      15
I               6.36040000      5.62884000      2.69653000      53
H              -1.05960000      4.66768000      7.54556000       1
N              -0.08150440     -8.91848000      0.69887100       7
H               7.99326000     -2.81456000     -2.93807000       1
N               8.72998000      2.08601000      0.69887100       7
P               8.33951000     -3.23216000      1.33517000      15
I               8.05324000     -1.38449000      3.94283000      53
H              -2.15974000     -5.19418000      7.12633000       1
N              -1.14085000     -5.34448000      7.27304000       7
I               4.11869000     -4.86089000      6.49903000      53
H               9.02415000      1.11219000      0.46678800       1
H               8.53049000      1.66072000      2.75458000       1
H               2.80351000      1.49950000      8.56574000       1
H              -0.62528100      7.04902000      5.79596000       1
C              -0.88213500     -8.90040000      1.95837000       6
P              -0.44877200      0.29009000     -9.14845000      15
H              -6.26803000      2.31543000     -6.28175000       1
H               4.15939000      2.45464000      7.88193000       1
I               2.08182000     -8.52692000     -2.91428000      53
H              -8.09219000     -1.64061000     -4.23486000       1
N              -1.21357000      5.66001000      7.27304000       7
N              -9.03844000      2.08601000      0.69887100       7
H              -0.25779400      5.18297000     -7.72905000       1
H              -6.09760000      6.80905000     -1.99422000       1
H              -5.04966000      3.26443000     -7.19763000       1
P              -5.00903000     -6.87806000      3.94650000      15
H              -0.82275900     -4.76525000      8.07403000       1
I              -4.76552000     -4.86089000      6.49903000      53
H              -1.03010000     -4.34260000     -8.28642000       1
I               5.85044000     -5.42474000     -5.07448000      53
H              -2.23247000      5.81031000      7.12633000       1
I               3.65243000     -8.64042000      1.28124000      53
I              -0.66617500      2.49479000      9.12833000      53
H               2.69068000      3.28680000      8.48941000       1
I               5.77771000      5.57975000     -5.07448000      53
H              -4.72482000      2.45464000      7.88193000       1
I              -2.28964000     -8.99205000     -2.16945000      53
C               3.36094000      2.43491000      8.62527000       6
I              -7.64424000      2.68518000      5.11681000      53
H               8.42758000     -0.43322300     -4.68767000       1
H              -0.18506600     -5.82152000     -7.72905000       1
I              -6.85305000      6.41297000      2.43772000      53
H              -0.28099400     -9.34377000      2.75458000       1
H              -9.23793000      1.66072000      2.75458000       1
N              -1.11765000      9.18226000     -3.21058000       7
C               8.61535000     -1.48029000     -4.44020000       6
I               4.04596000      6.14360000      6.49903000      53
H              -1.79259000     -9.48274000      1.79923000       1
I              -3.33769000      9.23091000      0.21478100      53
H               4.10299000      8.35703000      3.21558000       1
I               8.38669000     -4.98745000     -1.35530000      53
I               1.31270000     -8.31931000      5.11681000      53
H              -9.60160000      2.41485000     -0.11312800       1
H              -0.98687400     -6.33681000      7.54556000       1
H               0.21266600     -9.89230000      0.46678800       1
H              -9.61104000     -1.24300000     -2.40960000       1
H               9.60120000      2.63717000      0.78705800       1
I               1.07459000      9.95599000     -0.31021400      53
