200
cutoff_factor=1.20000000 nneightol=1.20000000 Lattice="27.76952000       0.00000000       0.00000000       0.00000000      27.97594000       0.00000000       0.00000000       0.00000000      29.48316000" Properties=species:S:1:pos:R:3:Z:I:1
I              -0.43219000      0.38966900      0.16914800      53
H              -1.43218000      1.92205000      1.89874000       1
P               2.20661000      2.17381000      0.00321643      15
H               1.79652000     -1.09264000      2.28891000       1
P              -2.20589000     -2.24294000     -0.01201830      15
H              -1.91266000      1.09601000     -2.34769000       1
H               2.15081000     -2.47014000     -1.75878000       1
H               1.84362000     -0.61993200     -3.31248000       1
H               0.66303500     -1.80551000     -3.56498000       1
C               1.85654000     -1.67130000      3.21350000       6
I               4.05367000     -0.41050600     -0.07775900      53
N              -1.94996000      2.61472000      2.48500000       7
H               0.86324400     -2.00908000      3.51759000       1
I               0.39427000     -4.12472000      0.20233600      53
C              -2.60131000      1.76600000     -2.86587000       6
N               1.68108000     -1.59872000     -3.62274000       7
I               2.03249000      2.08338000     -3.19371000      53
I              -1.98206000     -2.15199000     -3.19547000      53
I               2.15296000      2.17811000      3.22349000      53
H              -2.61589000      3.09358000      1.84112000       1
H              -3.00688000      2.50724000     -2.17640000       1
C               2.46368000     -2.56916000     -2.80051000       6
H              -1.27678000      3.31239000      2.83763000       1
I              -2.47486000     -2.31904000      3.20045000      53
H               2.29526000     -3.44530000      2.20578000       1
H               2.31787000     -1.07815000      4.00637000       1
H              -3.36444000      1.20749000      3.17026000       1
H              -1.06288000      3.03859000     -3.56422000       1
I              -4.83109000     -0.41050600     -0.07775900      53
H              -1.93510000      1.43266000      4.23201000       1
C              -2.67067000      1.93436000      3.59904000       6
I               0.41810200      4.86325000      0.20233600      53
H              -3.40819000      1.19635000     -3.33265000       1
N               2.70848000     -2.87059000      2.96516000       7
N              -1.84679000      2.48137000     -3.93649000       7
H               3.52507000     -2.33223000     -2.90360000       1
H              -1.44797000      1.80478000     -4.62423000       1
H               3.66567000     -2.58375000      2.68422000       1
H               2.25907000     -3.57748000     -3.16758000       1
H               1.97184000     -1.65869000     -4.61848000       1
I              -4.07240000      4.08546000     -0.00596670      53
H               2.80725000     -3.44723000      3.82566000       1
H              -3.21436000      2.68921000      4.17180000       1
H              -2.47737000      3.09963000     -4.49350000       1
I               4.81236000      4.08546000     -0.00596670      53
I              -4.09623000     -4.90250000     -0.00596670      53
H               2.31909000      5.54266000      2.20578000       1
H              -5.21910000     -2.58375000      2.68422000       1
H              -1.30061000     -5.67558000      2.83763000       1
H               5.52032000      1.20749000      3.17026000       1
H               5.47658000      1.19635000     -3.33265000       1
H              -5.35969000     -2.33223000     -2.90360000       1
I              -0.47019600      0.46387900     -6.50538000      53
I               0.20014600     -0.51576100      6.54306000      53
H               2.28290000      5.41049000     -3.16758000       1
H              -2.63972000     -5.89439000      1.84112000       1
H               5.87788000      2.50724000     -2.17640000       1
I               4.78853000     -4.90250000     -0.00596670      53
H              -1.08672000     -5.94938000     -3.56422000       1
P              -6.67815000      2.17381000      0.00321643      15
P               1.96076000      2.15633000      6.39747000      15
P               6.67887000     -2.24294000     -0.01201830      15
P              -2.18206000      6.74503000     -0.01201830      15
H               2.17464000      6.51783000     -1.75878000       1
N              -1.97380000     -6.37325000      2.48500000       7
C               6.28345000      1.76600000     -2.86587000       6
P               2.18278000     -6.81415000      0.00321643      15
P              -2.26278000     -2.23522000     -6.41048000      15
P               2.26545000      2.28539000     -6.42888000      15
P              -2.41960000     -2.31104000      6.37908000      15
H               6.26887000      3.09358000      1.84112000       1
H               2.83108000      5.54073000      3.82566000       1
N               2.73231000      6.11737000      2.96516000       7
H              -6.73395000     -2.47014000     -1.75878000       1
N              -6.17629000     -2.87059000      2.96516000       7
C               2.48752000      6.41880000     -2.80051000       6
C               6.21409000      1.93436000      3.59904000       6
H               6.97210000      1.09601000     -2.34769000       1
H              -1.45601000     -7.06591000      1.89874000       1
C              -6.42108000     -2.56916000     -2.80051000       6
H              -3.03072000     -6.48073000     -2.17640000       1
I               3.95782000     -0.45997600     -6.38275000      53
I               0.38737700     -4.09497000     -6.30387000      53
H              -7.08824000     -1.09264000      2.28891000       1
I               6.40990000     -2.31904000      3.20045000      53
H               5.67040000      2.68921000      4.17180000       1
I              -0.70340000      3.93157000      6.42520000      53
H              -6.58950000     -3.44530000      2.20578000       1
H              -6.56689000     -1.07815000      4.00637000       1
I              -6.73181000      2.17811000      3.22349000      53
I              -4.27384000      0.29657000      6.50409000      53
I              -2.45103000      6.66892000      3.20045000      53
I              -1.95823000      6.83598000     -3.19547000      53
H              -7.04115000     -0.61993200     -3.31248000       1
N               6.93480000      2.61472000      2.48500000       7
H              -2.50120000     -5.88834000     -4.49350000       1
I               2.12912000     -6.80986000      3.22349000      53
N              -1.87062000     -6.50660000     -3.93649000       7
I              -6.85227000      2.08338000     -3.19371000      53
H               3.68950000      6.40422000      2.68422000       1
H               0.88707600      6.97888000      3.51759000       1
I               2.00866000     -6.90458000     -3.19371000      53
I               6.90270000     -2.15199000     -3.19547000      53
C              -7.02822000     -1.67130000      3.21350000       6
H               7.45258000      1.92205000      1.89874000       1
H              -6.07751000     -3.44723000      3.82566000       1
I               4.61092000      0.29657000      6.50409000      53
I               0.41120900      4.89299000     -6.30387000      53
H               0.68686700      7.18245000     -3.56498000       1
I              -4.92694000     -0.45997600     -6.38275000      53
H               3.54890000      6.65574000     -2.90360000       1
H              -6.62569000     -3.57748000     -3.16758000       1
C              -2.62514000     -7.22197000     -2.86587000       6
I              -0.72723200     -5.05640000      6.42520000      53
C               1.88037000      7.31667000      3.21350000       6
H              -3.23819000     -6.29876000      4.17180000       1
N              -7.20368000     -1.59872000     -3.62274000       7
H               6.94966000      1.43266000      4.23201000       1
C              -2.69450000     -7.05361000      3.59904000       6
N               1.70491000      7.38925000     -3.62274000       7
I               3.72951000     -4.13255000      6.30257000      53
H               6.40740000      3.09963000     -4.49350000       1
H               1.82036000      7.89533000      2.28891000       1
N               7.03797000      2.48137000     -3.93649000       7
H              -1.93649000     -7.89196000     -2.34769000       1
I               8.45257000      0.38966900      0.16914800      53
H              -6.91292000     -1.65869000     -4.61848000       1
I              -3.99956000      4.08066000     -6.26489000      53
I              -0.45602200     -8.59830000      0.16914800      53
H               1.72234000     -1.49679000      8.31446000       1
H              -1.47180000     -7.18318000     -4.62423000       1
H              -5.19526000      6.40422000      2.68422000       1
H               7.60798000      3.31239000      2.83763000       1
H               6.24504000     -5.89439000      1.84112000       1
I               3.75334000      4.85542000      6.30257000      53
H              -6.56567000      5.54266000      2.20578000       1
H              -1.95894000     -7.55531000      4.23201000       1
H               1.99568000      7.32927000     -4.61848000       1
I              -4.02339000     -4.90730000     -6.26489000      53
H               1.44686000     -1.70233000     -8.63616000       1
I               4.88520000      4.08066000     -6.26489000      53
H               7.43679000      1.80478000     -4.62423000       1
H              -8.02152000     -2.00908000      3.51759000       1
H               5.85405000     -6.48073000     -2.17640000       1
H              -5.33586000      6.65574000     -2.90360000       1
H              -2.68938000      2.73285000      8.18947000       1
H              -6.05368000      5.54073000      3.82566000       1
H              -3.38827000     -7.78047000      3.17026000       1
H               2.75174000     -2.79164000      8.18372000       1
H              -6.60186000      5.41049000     -3.16758000       1
H               7.82188000      3.03859000     -3.56422000       1
I              -5.15525000     -4.13255000      6.30257000      53
H              -8.22173000     -1.80551000     -3.56498000       1
H              -3.43202000     -7.79162000     -3.33265000       1
H              -1.39246000      1.14919000     -8.98229000       1
N              -6.15245000      6.11737000      2.96516000       7
H               2.34170000      7.90982000      4.00637000       1
H               1.86745000      8.36803000     -3.31248000       1
I               4.86137000     -4.90730000     -6.26489000      53
I              -9.31695000      0.38966900      0.16914800      53
P               6.46516000     -2.31104000      6.37908000      15
I              -0.40835800      9.37764000      0.16914800      53
N               2.35292000     -2.11505000      8.87146000       7
H               5.64657000     -6.29876000      4.17180000       1
I              -8.49049000     -4.12472000      0.20233600      53
I              -5.13142000      4.85542000      6.30257000      53
H               2.72612000     -2.95888000     -8.57595000       1
P               6.62198000     -2.23522000     -6.41048000      15
C              -6.39724000      6.41880000     -2.80051000       6
I               4.07751000      8.57746000     -0.07775900      53
P              -6.61931000      2.28539000     -6.42888000      15
P               6.70270000      6.74503000     -0.01201830      15
H              -6.71012000      6.51783000     -1.75878000       1
P              -2.39577000      6.67693000      6.37908000      15
P               2.24162000     -6.70258000     -6.42888000      15
P              -6.70198000     -6.81415000      0.00321643      15
P               1.93693000     -6.83164000      6.39747000      15
P              -2.23895000      6.75275000     -6.41048000      15
H              -1.88184000      3.51827000     -8.80158000       1
P              -6.92400000      2.15633000      6.39747000      15
N               6.91097000     -6.37325000      2.48500000       7
C               1.99055000     -2.45718000     -9.20892000       6
I              -8.46666000      4.86325000      0.20233600      53
H               6.38356000     -5.88834000     -4.49350000       1
I               6.43373000      6.66892000      3.20045000      53
I              -4.80726000      8.57746000     -0.07775900      53
H               3.13682000     -1.55784000      9.24373000       1
H               7.58415000     -5.67558000      2.83763000       1
H              -2.40215000      0.81406600      9.64037000       1
C               6.25962000     -7.22197000     -2.86587000       6
H               5.49649000     -7.78047000      3.17026000       1
C               6.19026000     -7.05361000      3.59904000       6
I              -2.07058000     -2.21343000     -9.58446000      53
N              -2.98014000      2.79282000      9.18521000       7
H               5.45274000     -7.79162000     -3.33265000       1
H               0.79152300     -3.40008000      9.47530000       1
N              -1.49123000      1.72583000     -9.84279000       7
I               2.21019000      2.27738000     -9.60751000      53
I              -6.75564000     -6.80986000      3.22349000      53
I               2.24148000      2.23955000      9.61249000      53
