200
cutoff_factor=1.20000000 nneightol=1.20000000 Lattice="28.54461000       0.00000000       0.00000000       0.00000000      29.14337000       0.00000000       0.00000000       0.00000000      28.12149000" Properties=species:S:1:pos:R:3:Z:I:1
P               0.62649500      0.96068100      1.68531000      15
H               0.01215260     -1.45804000     -1.74942000       1
H              -1.52583000     -1.40466000     -1.12087000       1
I               2.17676000     -0.77194700     -0.54698100      53
I              -1.71893000     -1.29146000      1.59635000      53
N              -0.96246000     -1.79213000     -1.90369000       7
I              -0.94598400      2.61527000     -0.57233200      53
H              -0.95158500     -2.82584000     -1.77341000       1
H              -1.47875000     -0.29859200     -3.29492000       1
C              -1.49253000     -1.38825000     -3.23866000       6
H               2.39378000      2.56447000     -2.40183000       1
H               1.89390000     -4.03143000      0.32062000       1
H              -0.85467300     -1.82166000     -4.01233000       1
H               0.87162900      3.42121000     -2.82007000       1
H              -2.51433000     -1.76095000     -3.32918000       1
I               2.10775000     -0.67942400      4.04864000      53
I               2.92936000      3.18347000      1.76039000      53
H              -4.15150000      1.66895000      1.66933000       1
I              -1.05770000      2.47999000      3.96379000      53
H               2.51307000     -3.27480000      2.54298000       1
C               1.89855000      3.21403000     -3.12719000       6
H              -4.60199000     -0.71305700      1.77571000       1
H              -1.02975000      4.89118000      0.54607200       1
H               4.63122000     -0.32192000      2.06021000       1
I              -0.91835800     -5.11469000     -0.59201200      53
N               2.67080000     -4.48842000      0.82403600       7
H               1.91286000      2.76188000     -4.12086000       1
P               4.24895000     -1.57728000     -2.85287000      15
H              -1.40424000     -0.02653810      5.17151000       1
I              -4.79238000      0.85655300     -2.25159000      53
H               5.39401000      0.08799760      0.49098800       1
H               3.56996000     -4.07900000      0.49353900       1
P              -3.10465000      3.48203000     -2.82156000      15
P              -3.00830000     -4.27259000      1.73357000      15
C               2.51242000     -4.33939000      2.30126000       6
H              -5.56462000      0.08799760      0.49098800       1
H               0.01505520     -0.80922000      5.52866000       1
N              -5.01762000      1.32874000      2.10686000       7
C              -5.40596000     -0.00550890      1.56655000       6
H               1.56663000     -4.79874000      2.59336000       1
I               2.60683000     -0.00782345     -5.04228000      53
I              -1.48170000      1.97576000     -5.13376000      53
H              -1.69219000     -2.41729000      4.92514000       1
C               5.55267000     -0.00550890      1.56655000       6
H               5.16334000      2.00617000      1.94108000       1
H              -4.88466000      1.26297000      3.14089000       1
I               2.43584000     -4.24567000     -3.39604000      53
N              -0.96648600     -0.67192900      5.85424000       7
N              -1.03115000      5.89751000      0.82403600       7
H               2.63930000      5.00499000     -2.27800000       1
N               2.63856000      4.50724000     -3.19176000       7
H               2.67220000     -5.49476000      0.54607200       1
I              -5.12669000     -3.41181000     -0.60181600      53
H              -0.35362200      5.54233000      2.79134000       1
H              -0.13198700      6.30694000      0.49353900       1
H              -5.79529000      2.00617000      1.94108000       1
N               5.94101000      1.32874000      2.10686000       7
C              -1.70650000     -1.96514000      5.91881000       6
H               3.34833000     -4.84361000      2.79134000       1
H              -2.13532000      5.58719000      2.59336000       1
C              -1.18953000      6.04654000      2.30126000       6
H              -1.80805000      6.35451000      0.32062000       1
I               6.16625000      0.85655300     -2.25159000      53
I              -0.99822000     -5.18699000      4.00372000      53
H               6.35664000     -0.71305700      1.77571000       1
H              -6.32741000     -0.32192000      2.06021000       1
H               3.62010000      4.36995000     -3.51734000       1
H               2.79696000      3.38510000      5.03367000       1
H               1.13730000      3.44582000      5.71682000       1
I               5.83194000     -3.41181000     -0.60181600      53
H               2.20080000      5.15263000     -3.87449000       1
H              -0.96574500     -0.17417700      6.76800000       1
H               6.07397000      1.26297000      3.14089000       1
H              -2.73342000     -1.75797000      6.22593000       1
I              -4.62031000      5.27125000     -0.59201200      53
I              -1.26610000      6.14027000     -3.39604000      53
I              -5.08675000     -3.20341000      3.91224000      53
H               6.80712000      1.66895000      1.66933000       1
H              -1.21127000     -2.61470000      6.64417000       1
C               2.15910000      3.81851000      5.80734000       6
I               2.12999000      6.97413000     -0.60181600      53
P               0.59674500      0.90658200     -7.31243000      15
H              -4.00525000      0.33556400     -6.25466000       1
I              -4.70933000     -2.72678000     -5.08221000      53
H              -4.61738000     -5.38094000     -2.27800000       1
P              -6.70968000     -1.57728000     -2.85287000      15
P               0.59730000     -6.90390000     -2.82156000      15
H               2.42234000     -3.94379000     -5.90511000       1
I              -4.87115000      0.96109900      5.64996000      53
I              -0.72227200     -2.02330000     -7.28561000      53
P               4.24838000      6.11335000      1.73357000      15
H              -1.18888000      7.11114000      2.54298000       1
P               4.24893000     -1.69714000      6.22444000      15
I               5.87187000     -3.20341000      3.91224000      53
P              -3.05805000      3.62948000      6.19313000      15
H              -3.63658000     -6.01599000     -3.51734000       1
H               2.17288000      4.90817000      5.75108000       1
I              -1.54388000     -5.88619000     -4.99736000      53
H               1.51171000     -3.20060000     -7.10492000       1
I              -4.70017000      5.19894000      4.00372000      53
H               2.70004000      2.38092000      7.27259000       1
N              -4.61812000     -5.87870000     -3.19176000       7
H              -5.05587000     -5.23330000     -3.87449000       1
I               2.75596000     -7.77066000     -0.57233200      53
I               6.33832000      5.27125000     -0.59201200      53
N               2.28938000     -3.87803000     -6.93914000       7
H               5.17167000      0.38042700     -6.45264000       1
H              -4.84051000      1.90437000     -6.50302000       1
C              -4.84116000      0.83977700     -6.74474000       6
I               6.08747000      0.96109900      5.64996000      53
N               2.68917000      3.41464000      7.14231000       7
I               2.56120000     -4.32262000      6.79441000      53
H              -7.38867000     -4.07900000      0.49353900       1
I               2.16993000      7.18253000      3.91224000      53
I               6.24930000     -2.72678000     -5.08221000      53
I              -5.24583000      4.49975000     -4.99736000      53
I              -4.32732000     -7.20247000      1.76039000      53
H              -0.99694200      4.46611000     -7.27029000       1
I               1.88611000      3.88771000     -7.44965000      53
H               6.34125000     -5.38094000     -2.27800000       1
H              -5.78695000      0.38042700     -6.45264000       1
I              -1.47506000      1.79496000      8.44418000      53
H               3.15549000     -3.53782000     -7.37667000       1
H               5.90275000     -5.23330000     -3.87449000       1
H               4.57358000     -6.96473000     -2.82007000       1
I              -8.02927000      3.18347000      1.76039000      53
I               5.71280000      4.49975000     -4.99736000      53
H              -1.27961000      6.44214000     -5.90511000       1
I              -8.78186000     -0.77194700     -0.54698100      53
H              -2.09334000     -8.37977000      1.94108000       1
I               2.73327000      0.09207760      8.45399000      53
H              -0.44955700     -8.71699000      1.66933000       1
H              -2.72236000      4.85725000     -6.98579000       1
H               0.97958600     -5.52869000     -6.98579000       1
H               3.66378000      3.74873000      7.29658000       1
P              -3.02514000     -4.24609000     -7.36069000      15
P               7.85398000      3.48203000     -2.82156000      15
H               2.12580000      3.80210000      7.92513000       1
H              -4.65353000      7.56009000     -1.77341000       1
I               6.25846000      5.19894000      4.00372000      53
H               6.11812000      1.90437000     -6.50302000       1
C               6.11746000      0.83977700     -6.74474000       6
I              -1.14075000      6.06332000      6.79441000      53
P               0.64390300     -6.75645000      6.19313000      15
P               7.95032000     -4.27259000      1.73357000      15
N               6.34051000     -5.87870000     -3.19176000       7
I               2.64425000     -7.90595000      3.96379000      53
H              -7.33852000      4.36995000     -3.51734000       1
P              -6.71025000      6.11335000      1.73357000      15
H               8.44429000     -1.76095000     -3.32918000       1
H              -8.56485000      2.56447000     -2.40183000       1
C              -1.80091000      5.17366000     -7.47945000       6
P               0.54700200      8.80865000     -2.85287000      15
P              -6.70970000     -1.69714000      6.22444000      15
C               1.90104000     -5.21227000     -7.47945000       6
H               6.95337000      0.33556400     -6.25466000       1
N              -1.31567000     -9.05720000      2.10686000       7
H              -8.44556000     -3.27480000      2.54298000       1
H              -3.78362000      1.10017000     -8.55246000       1
H              -5.08380000     -5.47776000      5.75108000       1
H              -7.61030000     -4.84361000      2.79134000       1
N              -8.28783000     -4.48842000      0.82403600       7
I               9.23969000     -1.29146000      1.59635000      53
C              -5.35813000     -7.17191000     -3.12719000       6
N              -4.68278000      0.69074800     -8.22196000       7
H              -4.86290000     -7.82147000     -2.40183000       1
I               2.54735000      7.65916000     -5.08221000      53
H               9.43280000     -1.40466000     -1.12087000       1
N              -1.41257000      6.50791000     -6.93914000       7
C               5.60050000     -7.17191000     -3.12719000       6
H              -4.45972000     -7.00083000      5.03367000       1
H              -4.68138000     -0.31558600     -8.49993000       1
H              -1.18271000     -9.12296000      3.14089000       1
I              -1.52518000      9.61399000     -0.54698100      53
I              -8.35180000     -0.00782345     -5.04228000      53
I              -8.85088000     -0.67942400      4.04864000      53
H               2.70501000     -5.91982000     -7.27029000       1
C              -8.44621000     -4.33939000      2.30126000       6
H              -3.68980000      8.92790000     -1.74942000       1
I              -1.09043000     -9.52938000     -2.25159000      53
H              -6.38505000     -6.96473000     -2.82007000       1
H               5.87483000     -5.47776000      5.75108000       1
I              -1.52164000      1.76736000     -9.64782000      53
H              -9.06473000     -4.03143000      0.32062000       1
I               6.63131000     -7.20247000      1.76039000      53
I              -4.55103000     -2.56390000      8.47367000      53
H              -8.28643000     -5.49476000      0.54607200       1
N              -4.66441000      8.59381000     -1.90369000       7
H              -8.31932000      5.00499000     -2.27800000       1
N              -8.32006000      4.50724000     -3.19176000       7
H               6.30509000      7.56009000     -1.77341000       1
I               2.68669000      0.06448260     -9.63801000      53
H               9.47988000     -0.29859200     -3.29492000       1
H              -0.54645700      6.84812000     -7.37667000       1
I               2.22024000     -8.41017000     -5.13376000      53
C               9.46609000     -1.38825000     -3.23866000       6
H               7.32205000     -6.01599000     -3.51734000       1
C              -9.06008000      3.21403000     -3.12719000       6
I              -8.52278000     -4.24567000     -3.39604000      53
H               1.74238000     -5.11877000     -8.55501000       1
