200
cutoff_factor=1.20000000 nneightol=1.20000000 Lattice="28.12631000       0.00000000       0.00000000       0.00000000      28.57763000       0.00000000       0.00000000       0.00000000      29.13985000" Properties=species:S:1:pos:R:3:Z:I:1
P               1.04165000      0.50886000     -1.41118000      15
I               1.28724000      0.39108700      1.78570000      53
I              -1.56217000     -1.37304000     -1.50728000      53
H              -2.08607000      0.46599000      1.97249000       1
H               1.27653000     -2.86400000      0.94030000       1
I              -0.71850700      3.15040000     -1.43913000      53
H              -0.13718200     -2.89359000      2.04340000       1
C               0.61707300     -3.49865000      1.53500000       6
H              -3.85853000      0.04352520      0.36636100       1
C              -3.12681000      0.68390900      2.22291000       6
I               2.87873000     -2.21763000     -1.49816000      53
H               3.91195000      0.01233360      1.57266000       1
N              -4.00765000     -0.17067000      1.37098000       7
H              -3.81696000     -1.18211000      1.52340000       1
H              -3.35868000      1.73159000      2.01802000       1
H               0.14023200     -4.25276000      0.90704300       1
I               3.79908000      2.19345000     -1.35043000      53
H              -3.32495000      0.44734200      3.27078000       1
H               0.11066300      4.69629000      0.90704300       1
I               1.25875000      0.45012400     -4.63567000      53
H               1.43379000     -3.17586000     -3.34074000       1
H              -2.09823000      0.32885600     -4.47057000       1
H              -0.03089100     -2.91747000     -4.11818000       1
H               5.06592000      0.04352520      0.36636100       1
N               4.91680000     -0.17067000      1.37098000       7
H               1.89078000     -3.50829000      3.21035000       1
N               1.43791000     -4.19604000      2.56879000       7
P               1.14244000      0.46921800      5.00418000      15
H               2.14696000      4.17009000      2.14929000       1
H              -5.01249000      0.01233360      1.57266000       1
H               0.79876400      4.15643000      3.17167000       1
I              -1.39511000     -1.44822000      4.94965000      53
N               0.68323300     -3.62949000     -3.90885000       7
H               0.25041800     -4.34923000     -3.28809000       1
H               5.10748000     -1.18211000      1.52340000       1
I              -3.47613000     -3.82909000      1.77690000      53
P              -3.41406000     -4.04710000     -1.41682000      15
H              -4.14540000      1.24939000     -3.50889000       1
N               1.40835000      4.75301000      2.56879000       7
H              -3.40856000     -0.89569000     -4.39922000       1
H               0.22084900      4.59982000     -3.28809000       1
H               2.17652000     -4.77896000      2.14929000       1
C               0.58750400      5.45039000      1.53500000       6
I              -5.12536000      2.19345000     -1.35043000      53
C              -3.07341000      0.03394530     -4.86470000       6
I              -0.74069600      3.06247000      4.85169000      53
H               0.82833300     -4.79262000      3.17167000       1
I              -0.68893800     -5.79864000     -1.43913000      53
H               4.77904000      1.24939000     -3.50889000       1
P              -3.44362000      4.90195000     -1.41682000      15
H               5.56576000      1.73159000      2.01802000       1
N              -4.05869000      1.10703000     -4.53860000       7
C               5.79763000      0.68390900      2.22291000       6
I               2.99946000     -2.14374000      5.05025000      53
H               1.24696000      6.08505000      0.94030000       1
H               3.91037000      0.86872800     -4.87068000       1
H              -0.16675100      6.05546000      2.04340000       1
I              -3.50570000      5.11996000      1.77690000      53
H               5.59949000      0.44734200      3.27078000       1
H              -3.78217000      2.02320000     -4.93941000       1
H               1.94624000      3.96603000     -4.88213000       1
H               1.86121000      5.44076000      3.21035000       1
I              -6.04571000     -2.21763000     -1.49816000      53
N               0.65366400      5.31956000     -3.90885000       7
H              -3.02900000     -0.07644670     -5.95059000       1
I               3.69232000      2.39143000      5.06785000      53
N               4.86575000      1.10703000     -4.53860000       7
C               1.22595000     -4.23804000     -5.15774000       6
H               1.40422000      5.77319000     -3.34074000       1
I               5.44831000     -3.82909000      1.77690000      53
H               1.67745000     -3.44685000     -5.76078000       1
P               5.51039000     -4.04710000     -1.41682000      15
H              -5.01407000      0.86872800     -4.87068000       1
C               1.19638000      4.71101000     -5.15774000       6
I              -3.39971000     -4.16981000     -4.63445000      53
H               5.51589000     -0.89569000     -4.39922000       1
H               0.37277600      4.24112000     -5.70030000       1
H               6.83837000      0.46599000      1.97249000       1
P              -3.30413000     -3.99620000      5.00363000      15
H               1.97581000     -4.98302000     -4.88213000       1
H              -0.06046000      6.03158000     -4.11818000       1
H               0.40234500     -4.70793000     -5.70030000       1
H               5.14227000      2.02320000     -4.93941000       1
I               2.84916000      6.73142000     -1.49816000      53
P               5.48082000      4.90195000     -1.41682000      15
I              -3.42928000      4.77924000     -4.63445000      53
C               5.85104000      0.03394530     -4.86470000       6
I               7.36227000     -1.37304000     -1.50728000      53
I              -0.71112700     -5.88658000      4.85169000      53
I               5.41874000      5.11996000      1.77690000      53
I              -5.23212000      2.39143000      5.06785000      53
H              -2.77102000      1.11910000      7.08470000       1
P              -3.33370000      4.95285000      5.00363000      15
I              -7.63720000      0.39108700      1.78570000      53
I               3.82865000     -6.75560000     -1.35043000      53
I              -1.59174000      7.57601000     -1.50728000      53
P               1.11478000      0.38690500     -7.84184000      15
P              -7.88280000      0.50886000     -1.41118000      15
I              -5.92498000     -2.14374000      5.05025000      53
I              -0.78364700     -2.17452000     -7.77763000      53
H               1.64789000      5.50220000     -5.76078000       1
H               6.82621000      0.32885600     -4.47057000       1
H              -3.32911000     -7.21746000      2.01802000       1
H              -4.04613000     -0.14198100      7.14518000       1
H              -7.64792000     -2.86400000      0.94030000       1
H              -6.77749000      4.17009000      2.14929000       1
I              -1.50607000      2.23937000     -7.79523000      53
H               0.72336100     -2.35990000      7.90606000       1
I               1.07626000      0.39614200      8.21103000      53
I               5.52474000     -4.16981000     -4.63445000      53
C              -3.22253000      0.32790800      7.68773000       6
H               1.47654000     -4.45955000      6.89489000       1
H              -2.47267000     -0.41707000      7.96334000       1
H               1.44697000      4.48950000      6.89489000       1
H               5.89545000     -0.07644670     -5.95059000       1
H              -7.03366000     -3.50829000      3.21035000       1
P               5.62032000     -3.99620000      5.00363000      15
H              -6.74792000     -4.77896000      2.14929000       1
I              -5.09579000     -6.75560000     -1.35043000      53
P               1.07122000     -8.44019000     -1.41118000      15
I               5.49517000      4.77924000     -4.63445000      53
H               4.87831000     -0.14198100      7.14518000       1
H              -0.50853700     -3.51437000      7.97479000       1
H              -7.49066000     -3.17586000     -3.34074000       1
H              -3.84653000      7.76694000      1.52340000       1
I               1.31681000     -8.55796000      1.78570000      53
I               8.20594000      3.15040000     -1.43913000      53
I               3.70778000     -1.50347000     -7.99378000      53
N               0.44684600     -3.27607000      8.30687000       7
H              -2.05650000     -8.48306000      1.97249000       1
I               3.02380000      2.93488000     -7.89583000      53
N              -7.48653000     -4.19604000      2.56879000       7
I              -7.66569000      0.45012400     -4.63567000      53
I               2.96990000      6.80531000      5.05025000      53
P               5.59075000      4.95285000      5.00363000      15
I               3.72189000     -6.55762000      5.06785000      53
I              -1.42468000      7.50083000      4.94965000      53
C              -3.09724000     -8.26514000      2.22291000       6
I               7.52933000     -1.44822000      4.94965000      53
C              -8.30737000     -3.49865000      1.53500000       6
I              -6.07528000      6.73142000     -1.49816000      53
C               1.43213000     -4.34916000      7.98078000       6
N              -7.51610000      4.75301000      2.56879000       7
P              -7.78201000      0.46921800      5.00418000      15
H               1.06741000      3.67026000      8.44626000       1
H              -3.75261000     -6.92585000     -4.93941000       1
C               1.40256000      4.59989000      7.98078000       6
H               5.59533000     -7.21746000      2.01802000       1
H              -6.97821000      3.96603000     -4.88213000       1
H               5.07791000      7.76694000      1.52340000       1
H              -4.11583000     -7.69966000     -3.50889000       1
H               6.15342000      1.11910000      7.08470000       1
P              -3.33353000     -4.09673000     -7.84130000      15
H               8.78726000     -2.89359000      2.04340000       1
H              -7.06323000      5.44076000      3.21035000       1
C               5.70191000      0.32790800      7.68773000       6
I               1.25767000      9.34014000      1.78570000      53
H               2.40730000     -4.05425000      8.37491000       1
P               1.01208000      9.45791000     -1.41118000      15
I              -3.16015000     -3.93298000      8.20981000      53
H              -8.12568000      4.15643000      3.17167000       1
I              -5.21666000     -1.50347000     -7.99378000      53
H              -0.53810600      5.43468000      7.97479000       1
H              -3.29538000     -8.50171000      3.27078000       1
H              -3.82896000     -8.90552000      0.36636100       1
H              -9.06163000     -2.89359000      2.04340000       1
H               4.80861000     -7.69966000     -3.50889000       1
N              -3.76524000      0.93645300      8.93662000       7
N              -4.03722000      8.77838000      1.37098000       7
I               1.28832000     -8.49893000     -4.63567000      53
I              -5.20256000     -6.55762000      5.06785000      53
H              -3.43812000      8.05336000     -4.39922000       1
H              -8.78421000     -4.25276000      0.90704300       1
H              -3.88810000      8.99258000      0.36636100       1
P              -3.36310000      4.85232000     -7.84130000      15
N              -8.24121000     -3.62949000     -3.90885000       7
H              -7.67748000      6.08505000      0.94030000       1
H              -6.94864000     -4.98302000     -4.88213000       1
H              -2.11564000      9.41504000      1.97249000       1
H               0.36013500     -3.13371000      9.33659000       1
H              -7.24699000     -3.44685000     -5.76078000       1
H               3.88238000      8.96138000      1.57266000       1
H               3.94152000     -8.93672000      1.57266000       1
P               1.17201000     -8.47983000      5.00418000      15
N              -4.02912000     -7.84202000     -4.53860000       7
H              -2.06866000     -8.62019000     -4.47057000       1
H              -8.09611000     -4.79262000      3.17167000       1
H               4.44508000      1.64847000      8.72730000       1
H              -4.47937000      1.64847000      8.72730000       1
H               5.17184000     -6.92585000     -4.93941000       1
H               2.37773000      4.89480000      8.37491000       1
I               8.18375000      3.06247000      4.85169000      53
H               1.09698000     -5.27879000      8.44626000       1
H              -2.61475000      0.87481600     -9.63512000       1
H              -8.81378000      4.69629000      0.90704300       1
N              -3.97808000     -9.11972000      1.37098000       7
H              -7.52023000      5.77319000     -3.34074000       1
H               9.06468000     -4.25276000      0.90704300       1
H              -3.01469000      1.39009000      9.50473000       1
N               0.41727700      5.67298000      8.30687000       7
