200
cutoff_factor=1.20000000 nneightol=1.20000000 Lattice="27.82884000       0.00000000       0.00000000       0.00000000      27.94503000       0.00000000       0.00000000       0.00000000      29.40880000" Properties=species:S:1:pos:R:3:Z:I:1
I              -1.49802000      0.20442600     -0.18551100      53
P               1.15060000     -1.62775000      0.02433970      15
I               2.96418000      1.04617000      0.16922800      53
H               1.89459000      2.10956000     -1.93181000       1
H               1.15293000      1.48711000      3.07672000       1
H              -3.09866000     -0.78102000     -2.01067000       1
I               1.42807000     -1.42085000     -3.21324000      53
I               1.06651000     -1.85042000      3.20959000      53
H               1.61390000      1.23303000     -3.32251000       1
H              -2.59274000     -1.98224000      2.24531000       1
H              -0.20486000      2.80822000     -2.94837000       1
H              -2.34871000     -0.56465200      3.31886000       1
N               1.81023000      2.19017000     -2.96740000       7
H               0.41553800      3.56731000      2.01643000       1
I              -0.62747800     -4.29494000     -0.16837500      53
P              -3.29855000      2.88944000      0.01568390      15
C              -3.08492000     -1.24330000      2.88181000       6
C               1.45229000      2.45301000      3.48978000       6
H              -1.93977000     -2.52433000     -3.19048000       1
H              -3.82877000     -0.68321800      2.31041000       1
N               0.46067600      3.48275000      3.05260000       7
C               0.74462100      3.15115000     -3.36573000       6
N              -3.65693000     -1.48554000     -2.53943000       7
H              -0.49900000      3.24464000      3.37620000       1
I              -0.62271800      4.67758000     -0.16837500      53
H               2.43724000      2.74004000      3.11467000       1
H              -3.94798000     -2.20343000     -1.83834000       1
H               2.74476000      2.47283000     -3.32613000       1
C              -2.84530000     -2.10009000     -3.63021000       6
I               3.84792000     -3.41225000      0.07701320      53
H               1.00201000      4.13738000     -2.97284000       1
H              -2.59204000     -1.32191000     -4.35218000       1
I              -3.14122000      2.84944000      3.19542000      53
H               4.38933000     -1.06568000     -2.90687000       1
H               1.45494000      2.41714000      4.58162000       1
H              -4.52509000     -1.06568000     -2.90687000       1
H               0.69798100      3.17289000     -4.45608000       1
I              -3.52969000      2.87792000     -3.20977000      53
H               5.08565000     -0.68321800      2.31041000       1
H               0.70110600      4.42590000      3.41488000       1
H               0.69634600     -4.54662000      3.41488000       1
H               4.96644000     -2.20343000     -1.83834000       1
H               0.99724700     -4.83513000     -2.97284000       1
H               0.41077800     -5.40520000      2.01643000       1
N              -3.78133000     -1.96146000      3.98795000       7
N               5.25749000     -1.48554000     -2.53943000       7
I              -5.95024000      1.04617000      0.16922800      53
H              -3.10532000     -2.49326000      4.57943000       1
H              -3.44098000     -2.88265000     -4.10385000       1
I              -5.06650000     -3.41225000      0.07701320      53
H               5.81576000     -0.78102000     -2.01067000       1
H               4.42217000     -2.61597000      3.62543000       1
N               0.45591600     -5.48977000      3.05260000       7
P               5.61587000      2.88944000      0.01568390      15
H              -4.49225000     -2.61597000      3.62543000       1
H              -4.25265000     -1.28658000      4.62861000       1
I              -0.78300500      0.89490500      6.35863000      53
I              -1.36132000      0.34961100     -6.45931000      53
C               5.82950000     -1.24330000      2.88181000       6
H              -0.50376000     -5.72788000      3.37620000       1
H               4.66177000     -1.28658000      4.62861000       1
P               1.22789000     -1.58371000     -6.43482000      15
P               1.02339000     -1.71329000      6.43930000      15
C               0.73986100     -5.82137000     -3.36573000       6
I               3.85268000      5.56027000      0.07701320      53
N               5.13309000     -1.96146000      3.98795000       7
H              -0.20962000     -6.16429000     -2.94837000       1
I               5.38473000      2.87792000     -3.20977000      53
P              -3.30331000     -6.08308000      0.01568390      15
H               6.32168000     -1.98224000      2.24531000       1
I               5.77320000      2.84944000      3.19542000      53
I               2.99598000      1.08816000     -6.51337000      53
H               0.69322000     -5.79963000     -4.45608000       1
I               3.63790000      0.20937400      6.40943000      53
H               1.88983000     -6.86295000     -1.93181000       1
C               6.06912000     -2.10009000     -3.63021000       6
H               6.56571000     -0.56465200      3.31886000       1
H               2.43248000     -6.23248000      3.11467000       1
I               7.41640000      0.20442600     -0.18551100      53
H               5.47345000     -2.88265000     -4.10385000       1
I              -1.57029000     -3.53491000      6.34360000      53
H              -6.16966000      2.47283000     -3.32613000       1
P               1.15536000      7.34476000      0.02433970      15
H              -1.93501000      6.44818000     -3.19048000       1
I              -5.06174000      5.56027000      0.07701320      53
C               1.44752000     -6.51950000      3.48978000       6
H              -7.01983000      2.10956000     -1.93181000       1
I              -3.14598000     -6.12307000      3.19542000      53
N               1.80547000     -6.78234000     -2.96740000       7
H              -6.47719000      2.74004000      3.11467000       1
I              -0.71500300     -4.14007000     -6.44754000      53
I              -3.53445000     -6.09459000     -3.20977000      53
P              -3.33363000      2.76573000      6.42215000      15
H              -2.58798000      6.99028000      2.24531000       1
H               6.32238000     -1.32191000     -4.35218000       1
P              -3.32475000      2.90978000     -6.41767000      15
H               2.74000000     -6.49969000     -3.32613000       1
H               5.80910000     -2.49326000      4.57943000       1
I               1.07127000      7.12210000      3.20959000      53
P              -7.76382000     -1.62775000      0.02433970      15
N              -7.10419000      2.19017000     -2.96740000       7
H              -3.94322000      6.76908000     -1.83834000       1
H               6.97465000     -2.52433000     -3.19048000       1
I              -0.71024300      4.83244000     -6.44754000      53
H              -3.43621000      6.08986000     -4.10385000       1
H              -7.30052000      1.23303000     -3.32251000       1
H               1.45018000     -6.55538000      4.58162000       1
H               1.14817000     -7.48540000      3.07672000       1
I               2.98682000     -4.27346000      6.39766000      53
I              -7.48635000     -1.42085000     -3.21324000      53
I               3.77851000     -3.45454000     -6.49834000      53
C              -2.84054000      6.87243000     -3.63021000       6
P               5.61111000     -6.08308000      0.01568390      15
I              -5.27652000      0.20937400      6.40943000      53
I               1.43283000      7.55166000     -3.21324000      53
I               2.95942000     -7.92634000      0.16922800      53
H              -7.76149000      1.48711000      3.07672000       1
I               2.99158000      4.69906000      6.39766000      53
I              -1.56553000      5.43760000      6.34360000      53
H              -3.10056000      6.47925000      4.57943000       1
H               4.42693000      6.35654000      3.62543000       1
H               1.60914000     -7.73949000     -3.32251000       1
H              -4.48749000      6.35654000      3.62543000       1
C              -7.46214000      2.45301000      3.48978000       6
H               4.97120000      6.76908000     -1.83834000       1
H               1.46096000      2.12981000     -8.27755000       1
I              -7.84791000     -1.85042000      3.20959000      53
N              -3.65217000      7.48698000     -2.53943000       7
I               5.37997000     -6.09459000     -3.20977000      53
C              -3.08016000      7.72921000      2.88181000       6
I              -5.91844000      1.08816000     -6.51337000      53
H               0.31362400      3.33648000     -8.22836000       1
I              -1.50278000     -8.76809000     -0.18551100      53
N              -3.77657000      7.01105000      3.98795000       7
H               0.91193000      1.46679000      8.75312000       1
P               5.58079000      2.76573000      6.42215000      15
I              -5.13591000     -3.45454000     -6.49834000      53
H              -2.89796000     -1.93231000     -8.27535000       1
H              -3.09390000      8.19149000     -2.01067000       1
P               5.58967000      2.90978000     -6.41767000      15
I               5.76844000     -6.12307000      3.19542000      53
H              -7.45948000      2.41714000      4.58162000       1
H               5.47821000      6.08986000     -4.10385000       1
H              -2.58728000      7.65061000     -4.35218000       1
H               1.76086000      3.02754000      8.50479000       1
N               0.78494900      2.66160000     -8.86902000       7
I              -1.49326000      9.17694000     -0.18551100      53
I               3.78327000      5.51797000     -6.49834000      53
I               8.28694000     -4.29494000     -0.16837500      53
H              -2.34395000      8.40786000      3.31886000       1
H              -3.86830000     -1.45018000      8.40090000       1
C              -8.16980000      3.15115000     -3.36573000       6
H              -7.91241000      4.13738000     -2.97284000       1
H              -3.82401000      8.28930000      2.31041000       1
H              -8.49888000      3.56731000      2.01643000       1
P              -3.32951000     -6.06273000     -6.41767000      15
H               0.07402830      2.00710000     -9.23154000       1
N               5.26225000      7.48698000     -2.53943000       7
H               4.39409000      7.90684000     -2.90687000       1
H              -6.48195000     -6.23248000      3.11467000       1
I               8.29170000      4.67758000     -0.16837500      53
P              -3.33839000     -6.20678000      6.42215000      15
H              -4.52033000      7.90684000     -2.90687000       1
H              -6.17442000     -6.49969000     -3.32613000       1
N               5.13785000      7.01105000      3.98795000       7
H               8.70956000      2.80822000     -2.94837000       1
C               1.50761000      2.24936000      9.22677000       6
H               8.41542000      3.24464000      3.37620000       1
N              -8.45375000      3.48275000      3.05260000       7
H               6.32644000      6.99028000      2.24531000       1
I              -5.92760000     -4.27346000      6.39766000      53
H              -7.91717000     -4.83513000     -2.97284000       1
P               1.02815000      7.25923000      6.43930000      15
H               5.81386000      6.47925000      4.57943000       1
I               0.81845600     -1.74515000      9.64721000      53
C               6.07388000      6.87243000     -3.63021000       6
H              -8.21644000      3.17289000     -4.45608000       1
P               1.23265000      7.38880000     -6.43482000      15
I               1.42030000     -1.50000000     -9.66156000      53
I              -5.92284000      4.69906000      6.39766000      53
H               5.04613000     -1.45018000      8.40090000       1
I              -5.95500000     -7.92634000      0.16922800      53
H              -4.24789000      7.68593000      4.62861000       1
H              -8.21332000      4.42590000      3.41488000       1
H              -1.82152000     -2.15024000      9.53084000       1
I               7.55310000      0.34961100     -6.45931000      53
I              -5.13115000      5.51797000     -6.49834000      53
H               0.30886400     -5.63603000     -8.22836000       1
H              -9.11928000      2.80822000     -2.94837000       1
C              -2.90062000     -1.89644000     -9.36720000       6
H              -8.21808000     -4.54662000      3.41488000       1
H               5.09041000      8.28930000      2.31041000       1
H              -7.02459000     -6.86295000     -1.93181000       1
H               6.97941000      6.44818000     -3.19048000       1
H              -1.91567000     -1.60941000     -9.74230000       1
C               5.83426000      7.72921000      2.88181000       6
H               4.66653000      7.68593000      4.62861000       1
H              -3.65180000      0.07645170     -9.44209000       1
H               2.41313000      1.82511000      9.66650000       1
P              -7.68653000     -1.58371000     -6.43482000      15
