200
cutoff_factor=1.20000000 nneightol=1.20000000 Lattice="27.63369000       0.00000000       0.00000000       0.00000000      28.34085000       0.00000000       0.00000000       0.00000000      28.45669000" Properties=species:S:1:pos:R:3:Z:I:1
I              -1.41172000     -0.21948600     -1.42856000      53
H               2.14452000      0.10172900      1.35435000       1
H               0.38097500     -0.03746930      3.03272000       1
P              -2.35262000      2.32864000      0.12924100      15
I               0.62096900      3.19496000      0.75725700      53
N               2.38057000     -0.03116050      2.35683000       7
I               3.15435000     -0.15576900     -1.31691000      53
P               0.92511900     -2.10523000     -2.62517000      15
C               1.31702000      0.46917300      3.27783000       6
H               1.21686000      1.54766000      3.14210000       1
H               2.57113000     -1.03472000      2.55703000       1
H               2.54200000      2.14441000     -2.13924000       1
I               1.21141000     -3.81027000      0.07649840      53
H              -2.78969000     -2.95447000     -0.46559600       1
H               3.28340000      0.46117800      2.52311000       1
H               1.99855000      3.46805000     -1.32349000       1
I              -3.62012000      0.81833800      2.49065000      53
H               0.53681700      3.08635000     -3.19694000       1
N               2.41332000      3.17705000     -2.23621000       7
H               1.61386000      0.24186500      4.30358000       1
H               4.52599000     -1.95722000      0.01010160       1
I              -0.99698500     -2.77245000      3.99570000      53
C               1.51867000      3.52951000     -3.37783000       6
C              -3.72573000     -3.46111000     -0.71069900       6
H               3.81371000     -3.45311000      0.04402490       1
H              -4.97984000     -1.95722000      0.01010160       1
H              -2.91940000      0.25392500     -4.50464000       1
H               3.36669000      3.58550000     -2.33200000       1
H              -4.02257000     -3.23380000     -1.73645000       1
I               1.17636000     -0.34852300     -5.32269000      53
H              -4.33425000      0.21404100     -3.40685000       1
N               4.71655000     -2.96077000      0.21030200       7
N              -4.78928000     -2.96077000      0.21030200       7
H              -4.55322000     -3.09366000      1.21279000       1
I              -3.55895000      3.68876000     -2.37888000      53
H               1.95167000      3.12625000     -4.29472000       1
I              -1.29326000     -3.97750000     -3.85078000      53
C              -3.90124000     -0.18923800     -4.32374000       6
H              -3.62557000     -4.53960000     -0.57497100       1
P              -0.05608450     -5.32057000      2.43790000      15
H              -3.82490000     -1.27748000     -4.26587000       1
H               1.44233000      4.61776000     -3.43568000       1
H               4.95261000     -3.09366000      1.21279000       1
I              -2.82574000      5.10835000      1.80988000      53
H               5.17158000      0.21404100     -3.40685000       1
I               3.94277000     -2.83616000      3.88405000      53
P              -3.33383000     -0.88670800      5.19231000      15
I               5.88571000      0.81833800      2.49065000      53
P               0.14785500      5.97467000      2.43790000      15
I              -6.35147000     -0.15576900     -1.31691000      53
I               3.45965000     -3.97750000     -3.85078000      53
H               3.75655000     -0.24524800     -5.36956000       1
I              -1.11545000      0.98556500      6.41793000      53
H               5.48325000     -3.23380000     -1.73645000       1
H              -5.69211000     -3.45311000      0.04402490       1
H              -6.22242000      0.46117800      2.52311000       1
C               5.78009000     -3.46111000     -0.71069900       6
I               1.35418000      4.61454000      4.94603000      53
H               1.92555000     -3.20593000      5.97399000       1
C               5.60458000     -0.18923800     -4.32374000       6
I              -3.02968000     -6.18689000      1.80988000      53
H               1.41620000     -1.71442000      6.83304000       1
N               4.70993000      0.16320600     -5.46536000       7
H               5.68092000     -1.27748000     -4.26587000       1
N              -4.79590000      0.16320600     -5.46536000       7
I              -0.97085900      3.55973000     -6.27301000      53
H               4.58124000      1.19584000     -5.56234000       1
H               6.71614000     -2.95447000     -0.46559600       1
I              -5.56306000     -2.83616000      3.88405000      53
I               5.94688000      3.68876000     -2.37888000      53
I               3.63746000      0.98555900      6.41793000      53
H               5.88025000     -4.53960000     -0.57497100       1
H              -6.93470000     -1.03472000      2.55703000       1
H              -6.13913000      3.58550000     -2.33200000       1
H              -7.36131000      0.10172900      1.35435000       1
H              -4.20333000      4.83525000      3.89063000       1
N              -7.12526000     -0.03116050      2.35683000       7
P               7.15320000      2.32864000      0.12924100      15
H              -4.92459000      1.19584000     -5.56234000       1
C               1.49254000     -2.80267000      6.89088000       6
H              -6.96382000      2.14441000     -2.13924000       1
H              -3.42163000      6.75564000     -0.57497100       1
H               1.23839000     -6.67748000     -3.43568000       1
I               1.41535000      7.48498000      0.07649840      53
H              -4.38114000     -0.12781200     -6.37808000       1
H               1.43604000     -4.72120000     -5.96513000       1
H               0.51069000     -3.24583000      7.07177000       1
H               3.93436000      4.71782000      4.89915000       1
H              -5.74928000     -0.24524800     -5.36956000       1
P              -0.02995810      1.01161000     -7.83081000      15
H              -3.64709000      3.68558000      6.00285000       1
H               1.03905000     -3.41540000     -7.12661000       1
H               6.58643000      0.25392500     -4.50464000       1
N              -7.09251000      3.17705000     -2.23621000       7
P               6.17200000     -0.88670800      5.19231000      15
H               1.79462000     -7.82719000     -1.32349000       1
I               0.41703000     -8.10028000      0.75725700      53
P              -3.30770000      5.44547000     -5.07640000      15
H               5.30250000      4.83525000      3.89063000       1
H               5.12469000     -0.12781200     -6.37808000       1
I              -6.04618000     -3.97750000     -3.85078000      53
I               8.09410000     -0.21948600     -1.42856000      53
P               1.10293000      2.85784000      7.64354000      15
H              -2.74158000      5.21699000      5.76407000       1
I               3.96889000      3.49601000     -6.38466000      53
H               4.55511000     -5.13634000      4.70637000       1
I              -1.08932000      7.31774000     -3.85078000      53
H              -7.50727000      3.46805000     -1.32349000       1
C               1.13921000     -4.49389000     -6.99088000       6
I               1.15024000     -6.68070000      4.94603000      53
N              -4.61809000      5.12627000      4.80335000       7
C              -3.72343000      4.77383000      5.94498000       6
P              -3.51164000     -5.84977000     -5.07640000      15
H              -4.95072000     -5.13634000      4.70637000       1
N               4.88774000      5.12627000      4.80335000       7
C               1.31473000     -7.76573000     -3.37783000       6
I               6.68009000      5.10835000      1.80988000      53
C              -3.52179000      7.83413000     -0.71069900       6
H               3.16276000     -7.70975000     -2.33200000       1
N               2.20938000     -8.11820000     -2.23621000       7
H              -4.40727000     -6.45999000      3.89063000       1
H              -2.58575000      8.34078000     -0.46559600       1
I              -5.86837000      0.98555900      6.41793000      53
H              -5.57146000      4.71782000      4.89915000       1
H               0.20316200     -5.00053000     -7.23599000       1
H               4.01765000      7.84213000      0.04402490       1
I              -3.76289000     -7.60648000     -2.37888000      53
H               0.33287700     -8.20890000     -3.19694000       1
C              -8.18881000      0.46917300      3.27783000       6
H              -2.94552000     -6.07825000      5.76407000       1
N               2.38719000     -3.15513000      8.03251000       7
I              -3.00355000      0.14528400     -8.45883000      53
H              -7.89197000      0.24186500      4.30358000       1
H              -8.28896000      1.54766000      3.14210000       1
H               3.73042000     -6.57743000      4.89915000       1
H               1.63998000      6.57404000     -5.96513000       1
H               3.34057000     -2.74668000      7.93672000       1
I               3.66359000      7.31774000     -3.85078000      53
I              -3.58507000     -2.64341000      7.88983000      53
H              -3.81863000      8.06144000     -1.73645000       1
H              -4.74678000      6.15891000      4.70637000       1
H               4.75905000      6.15891000      4.70637000       1
H               5.09856000     -6.45999000      3.89063000       1
H               6.08419000      6.75564000     -0.57497100       1
N               4.68380000     -6.16897000      4.80335000       7
I              -8.29442000     -3.81027000      0.07649840      53
I               6.47615000     -6.18689000      1.80988000      53
I              -5.53693000      3.49601000     -6.38466000      53
H               5.85873000      3.68558000      6.00285000       1
N              -4.82202000     -6.16897000      4.80335000       7
P              -8.58071000     -2.10523000     -2.62517000      15
H              -7.55415000      3.12625000     -4.29472000       1
P              -2.55656000     -8.96660000      0.12924100      15
H              -4.34928000      8.20158000      1.21279000       1
C              -7.98716000      3.52951000     -3.37783000       6
H               1.74773000     -8.16899000     -4.29472000       1
I              -0.79304500      8.52279000      3.99570000      53
I              -8.88486000      3.19496000      0.75725700      53
H               3.10559000     -4.50189000     -7.74560000       1
H               2.51588000     -4.18777000      8.12947000       1
N              -4.58534000      8.33447000      0.21030200       7
H              -3.84476000      1.72926000      8.53227000       1
H              -4.15643000      5.17711000      6.86186000       1
C               5.78240000      4.77383000      5.94498000       6
H              -5.48817000      7.84213000      0.04402490       1
I              -3.79793000     -4.14473000     -7.77807000      53
H               1.97243000     -2.86413000      8.94523000       1
H               0.40710100      6.29471000     -7.23599000       1
N               2.20275000     -4.99422000     -7.91188000       7
H              -9.12485000     -0.03746930      3.03272000       1
P               1.12906000      9.19002000     -2.62517000      15
C              -3.92737000     -6.52142000      5.94498000       6
N               4.92049000      8.33447000      0.21030200       7
H               2.33806000     -9.15083000     -2.13924000       1
I               0.44315600     -1.76810000     -9.51146000      53
P               6.19812000      5.44547000     -5.07640000      15
H               2.59725000      5.29746000     -7.71168000       1
H               5.15654000      8.20158000      1.21279000       1
P               5.99418000     -5.84977000     -5.07640000      15
I               8.50884000     -2.77245000      3.99570000      53
I               5.74294000     -7.60648000     -2.37888000      53
C               1.34315000      6.80135000     -6.99088000       6
C               5.98403000      7.83413000     -0.71069900       6
I              -8.32946000     -0.34852300     -5.32269000      53
I               8.21256000     -3.97750000     -3.85078000      53
H              -8.06350000      4.61776000     -3.43568000       1
H              -8.96901000      3.08635000     -3.19694000       1
H               5.68719000      8.06144000     -1.73645000       1
I              -1.17480000     -7.73551000     -6.27301000      53
H              -5.77540000     -6.57743000      4.89915000       1
H               2.39331000     -5.99778000     -7.71168000       1
I              -1.23391000      4.74358000      8.84016000      53
H               5.34939000      5.17711000      6.86186000       1
I              -5.84224000      7.31774000     -3.85078000      53
H              -7.58028000     -3.20593000      5.97399000       1
H              -4.36037000     -6.11814000      6.86186000       1
I               4.14671000      8.45908000      3.88405000      53
I               5.92075000     -2.64341000      7.88983000      53
H              -6.34307000     -7.70975000     -2.33200000       1
H               2.12949000      8.08932000      5.97399000       1
