200
cutoff_factor=1.20000000 nneightol=1.20000000 Lattice="28.37214000       0.00000000       0.00000000       0.00000000      29.84279000       0.00000000       0.00000000       0.00000000      29.27943000" Properties=species:S:1:pos:R:3:Z:I:1
P              -0.44749700      1.14932000      1.35144000      15
I               2.13808000     -0.32535000      0.10559100      53
I              -2.27684000     -1.06252000     -0.25299200      53
H              -1.27639000     -1.09960000     -2.63073000       1
I              -0.46715300      3.13882000     -1.20874000      53
H              -1.31048000     -3.34048000      0.46709700       1
H               3.07625000      1.70562000     -1.18783000       1
H              -0.36853400      0.85024300     -3.70833000       1
H               0.81828900     -0.49540900     -3.76352000       1
H               0.58760300     -3.43366000      1.96113000       1
N              -1.20699000     -1.08591000     -3.67188000       7
I              -0.43343500     -0.75589300      3.92666000      53
H               2.26903000      3.15259000     -1.20304000       1
C              -0.14806700     -0.13556200     -4.12376000       6
H               2.84902000     -0.45624500      2.99647000       1
H              -0.07370310     -4.21499000     -0.24322100       1
N              -0.76067300     -4.22446000      0.54288900       7
N               3.14044000      2.69049000     -1.52397000       7
I               1.52303000      3.20407000      2.82427000      53
H              -1.00519000     -2.04641000     -3.99181000       1
H              -2.14185000     -0.79337900     -4.01728000       1
C              -0.06348240     -4.30502000      1.86046000       6
I              -3.03329000      2.57823000      2.49202000      53
I               1.30455000     -4.00915000     -2.37960000      53
P               3.93707000     -2.51812000     -1.27809000      15
H               3.11185000      2.69925000     -2.56559000       1
H              -3.74443000      2.82867000     -1.35357000       1
H              -0.81723100     -4.31087000      2.64889000       1
C               3.47693000     -1.01511000      3.69288000       6
H              -0.16316500     -0.09950970     -5.21436000       1
H              -1.39042000     -5.02737000      0.40107100       1
H               4.08097000     -1.75253000      3.15961000       1
H              -3.99400000      0.45692300      3.68877000       1
H               4.31643000      3.34426000      0.09749150       1
H               2.86154000     -1.50005000      4.45319000       1
H               0.52409800     -5.22411000      1.88345000       1
C               4.35976000      3.36610000     -0.99315500       6
I               4.07157000     -0.68837100     -3.92478000      53
H              -4.66780000      3.34426000      0.09749150       1
P              -5.04717000     -2.51812000     -1.27809000      15
C              -4.62447000      3.36610000     -0.99315500       6
I               4.00818000     -4.38795000      1.27148000      53
H              -4.90326000     -1.75253000      3.15961000       1
H               5.23980000      2.82867000     -1.35357000       1
H               0.56736800      5.80321000      1.88345000       1
H              -1.34715000      5.99994000      0.40107100       1
N               4.39202000     -0.05419780      4.37278000       7
H               4.99023000      0.45692300      3.68877000       1
I              -3.11868000     -4.55417000     -2.90782000      53
P              -0.51307400      4.82525000     -3.95069000      15
I               2.10306000      3.23817000     -4.92409000      53
H              -5.90798000      1.70562000     -1.18783000       1
H               3.86616000      0.67827900      4.88523000       1
H              -0.11677200      3.46447000      5.22271000       1
I              -4.91266000     -0.68837100     -3.92478000      53
N              -4.59221000     -0.05419780      4.37278000       7
H               4.36565000      4.39695000     -1.35245000       1
I              -2.37248000      2.71096000     -5.38112000      53
H              -3.98901000     -0.52776100      5.07572000       1
H              -4.61859000      4.39695000     -1.35245000       1
N              -5.84379000      2.69049000     -1.52397000       7
H              -0.95879600      1.51757000      6.44526000       1
C              -5.50730000     -1.01511000      3.69288000       6
I              -4.97606000     -4.38795000      1.27148000      53
I               6.70739000     -1.06252000     -0.25299200      53
H              -0.03043340      6.81232000     -0.24322100       1
H              -6.13522000     -0.45624500      2.99647000       1
I              -6.84616000     -0.32535000      0.10559100      53
N              -0.71740400      6.80285000      0.54288900       7
I               5.95095000      2.57823000      2.49202000      53
H              -5.87238000      2.69925000     -2.56559000       1
C              -0.02021270      6.72230000      1.86046000       6
P              -0.50995200     -2.63809000      6.48637000      15
H              -5.11807000      0.67827900      4.88523000       1
H               4.99523000     -0.52776100      5.07572000       1
C              -0.10167500      3.42841000      6.31331000       6
I               2.10618000     -4.22517000      5.51297000      53
H              -0.77396100      6.71644000      2.64889000       1
N              -1.16059000      2.47806000      6.76519000       7
H              -2.09546000      2.77060000      6.41978000       1
H               3.81977000     -2.88570000     -5.55183000       1
I              -2.36936000     -4.75238000      5.05594000      53
P              -0.55634400     -6.20207000     -3.95069000      15
H               0.86468100      3.06857000      6.67355000       1
P               4.09263000      4.81266000      3.87849000      15
H              -6.71521000      3.15259000     -1.20304000       1
I               1.34782000      7.01817000     -2.37960000      53
H              -6.12269000     -1.50005000      4.45319000       1
I              -3.07541000      6.47314000     -2.90782000      53
I               1.47664000     -0.35990700     -7.61279000      53
H              -1.26721000      7.68683000      0.46709700       1
P               4.04624000      1.24868000     -6.55858000      15
I              -0.47982700     -4.31987000     -6.51040000      53
H              -4.03540000     -4.09174000     -5.36134000       1
H               0.63087300      7.59366000      1.96113000       1
I               4.05144000      6.63936000      1.27148000      53
P              -4.89160000      4.81266000      3.87849000      15
H               6.84238000     -0.79337900     -4.01728000       1
I               5.86556000     -4.55417000     -2.90782000      53
I              -0.51042300     -7.88850000     -1.20874000      53
H               4.32238000     -6.63036000     -1.35245000       1
H              -0.32214100      4.41422000      6.72874000       1
H              -5.16446000     -2.88570000     -5.55183000       1
I               1.35094000     -0.44517200      8.05746000      53
I              -3.07228000     -0.99019900      7.52925000      53
H              -4.66186000     -6.63036000     -1.35245000       1
H               7.70784000     -1.09960000     -2.63073000       1
I               4.11797000      2.87560000      6.51229000      53
H               2.22576000     -7.87472000     -1.20304000       1
H              -1.23000000      2.46437000      7.80634000       1
N               4.34563000     -3.61817000     -6.06429000       7
P              -4.93800000      1.24868000     -6.55858000      15
H               2.81515000     -5.06402000     -5.98388000       1
H               4.94883000     -4.09174000     -5.36134000       1
I              -4.93279000      6.63936000      1.27148000      53
P               4.04936000     -6.21466000      3.87849000      15
H               7.67376000     -3.34048000      0.46709700       1
I              -2.32609000      6.27493000      5.05594000      53
H              -0.82035400      3.15246000     -7.78817000       1
I               1.47977000     -7.82324000      2.82427000      53
N              -4.63860000     -3.61817000     -6.06429000       7
H              -4.04039000     -3.10705000     -6.74830000       1
I              -3.07968000     -0.98574300     -7.94505000      53
I              -7.46120000      3.20407000      2.82427000      53
I              -4.86627000      2.87560000      6.51229000      53
N               7.77725000     -1.08591000     -3.67188000       7
P               8.53674000      1.14932000      1.35144000      15
H               4.27316000     -7.68305000      0.09749150       1
P              -4.93487000     -6.21466000      3.87849000      15
C               3.43054000     -4.57908000     -6.74418000       6
C               4.31649000     -7.66122000     -0.99315500       6
H               0.52097500      2.23923000     -8.55362000       1
H               2.80262000     -4.02022000     -7.44059000       1
H               2.85842000      5.96329000     -5.98388000       1
H               4.94384000     -3.10705000     -6.74830000       1
I               6.61175000      2.71096000     -5.38112000      53
I              -7.67969000     -4.00915000     -2.37960000      53
H              -8.16594000     -0.49540900     -3.76352000       1
H              -4.71107000     -7.68305000      0.09749150       1
I               2.14945000      6.80214000      5.51297000      53
N               3.09717000     -8.33682000     -1.52397000       7
C              -4.66774000     -7.66122000     -0.99315500       6
I              -6.88117000      3.23817000     -4.92409000      53
H               7.59382000     -5.02737000      0.40107100       1
H              -3.78770000     -8.19865000     -1.35357000       1
C              -0.06660510      3.15832000     -8.57660000       6
H               7.97904000     -2.04641000     -3.99181000       1
I               8.51708000      3.13882000     -1.20874000      53
H              -0.16004200     -7.56285000      5.22271000       1
I               5.90883000      6.47314000     -2.90782000      53
H               3.06858000     -8.32806000     -2.56559000       1
N               8.22356000     -4.22446000      0.54288900       7
H              -8.39663000     -3.43366000      1.96113000       1
I              -3.07656000     -8.44908000      2.49202000      53
I              -0.43655700      6.70744000     -6.51040000      53
H               0.58448000      4.02968000     -8.47593000       1
P              -0.49389000     -2.41466000     -9.08563000      15
H               8.61570000      0.85024300     -3.70833000       1
I               8.55080000     -0.75589300      3.92666000      53
H              -0.36541100     -6.61310000      6.72874000       1
I               2.05979000     -7.78914000     -4.92409000      53
P               3.98034000      8.50919000     -1.27809000      15
I               6.61488000     -4.75238000      5.05594000      53
P              -9.43173000      1.14932000      1.35144000      15
H               8.16700000     -4.31087000      2.64889000       1
I               5.91195000     -0.99019900      7.52925000      53
H              -3.99213000      6.93558000     -5.36134000       1
H               3.11497000     -4.76409000      7.87148000       1
H               7.63709000      5.99994000      0.40107100       1
C               8.83617000     -0.13556200     -4.12376000       6
I              -6.87805000     -4.22517000      5.51297000      53
H               5.19653000     -8.19865000     -1.35357000       1
H               6.88877000      2.77060000      6.41978000       1
H               8.91053000     -4.21499000     -0.24322100       1
C              -5.55370000     -4.57908000     -6.74418000       6
H               3.03298000     -9.32169000     -1.18783000       1
H               4.03458000     -5.31650000     -7.27745000       1
H              -0.96191900      8.98091000     -3.99181000       1
C              -0.14494400     -7.59890000      6.31331000       6
I               5.90455000     -0.98574300     -7.94505000      53
P              -5.00390000      8.50919000     -1.27809000      15
C               3.47381000      6.44823000     -6.74418000       6
H              -6.16908000     -5.06402000     -5.98388000       1
P              -0.49076700     -9.87800000      1.35144000      15
H              -9.05794000     -4.21499000     -0.24322100       1
C              -9.13230000     -0.13556200     -4.12376000       6
I              -9.45139000      3.13882000     -1.20874000      53
P               3.98346000      1.04585000      9.15898000      15
C               8.92075000     -4.30502000      1.86046000       6
H               4.99210000      6.93558000     -5.36134000       1
H              -9.35277000      0.85024300     -3.70833000       1
H               4.07785000      5.71081000     -7.27745000       1
H              -8.46014000     -5.22411000      1.88345000       1
C              -9.04772000     -4.30502000      1.86046000       6
I              -2.41575000     -8.31636000     -5.38112000      53
I              -0.46403000     -4.32452000      9.22833000      53
H              -0.02731070     -0.65101800     10.19380000       1
I              -2.23357000      9.96479000     -0.25299200      53
I              -9.41767000     -0.75589300      3.92666000      53
H               8.82107000     -0.09950970     -5.21436000       1
