200
cutoff_factor=1.20000000 nneightol=1.20000000 Lattice="28.83786000       0.00000000       0.00000000       0.00000000      28.79156000       0.00000000       0.00000000       0.00000000      29.21578000" Properties=species:S:1:pos:R:3:Z:I:1
P               0.82427400      0.46218500     -0.55695100      15
I              -0.05861270     -1.17018000      2.03496000      53
I              -1.05803000     -1.38371000     -2.32869000      53
I              -1.30845000      2.83979000      0.47336600      53
H              -2.66720000     -2.01150000      1.44924000       1
I               3.07951000      2.02084000      1.05406000      53
I               3.20198000     -1.70433000     -1.43501000      53
H              -3.42020000      0.16009700      2.06133000       1
H              -0.01964080      1.31754000      3.89532000       1
I               1.36644000      2.41351000     -3.06915000      53
H              -2.45730000      1.36507000     -3.39319000       1
N              -3.68928000     -1.87767000      1.58655000       7
H              -3.45099000      1.93212000     -2.01049000       1
H               2.10969000      2.23891000      3.31621000       1
H              -0.15188600      3.03096000      3.37837000       1
H              -4.16939000     -1.68176000      0.67963000       1
C              -3.87350000     -0.72451700      2.51451000       6
H               0.36669500      4.74933000     -0.22622500       1
C               0.21607900      2.35272000      4.15116000       6
C              -3.47297000      1.52867000     -3.02553000       6
H               4.03343000     -0.57066300      2.66632000       1
H              -3.38350000     -0.96033100      3.46160000       1
P               1.25942000     -3.53219000     -3.22112000      15
H               1.01318000      4.53140000     -1.72792000       1
H              -4.04490000      0.59835300     -3.05370000       1
H               4.80809000     -1.68176000      0.67963000       1
N               1.68985000      2.49363000      4.23582000       7
H              -3.33686000     -3.98847000     -0.60304000       1
H              -4.12987000     -2.72430000      2.01358000       1
N               0.95116800      5.21968000     -0.94695800       7
P               0.68839000     -2.88786000      4.59168000      15
I               0.70286000     -5.37679000     -0.71421300      53
H              -2.70625000     -4.32452000     -2.24792000       1
H              -4.94406000     -0.57066300      2.66632000       1
H               2.09126000      1.83927000      4.93593000       1
H               1.93520000      5.34335000     -0.61753200       1
C               5.10398000     -0.72451700      2.51451000       6
H              -0.21087300      2.61200000      5.12238000       1
N               5.28820000     -1.87767000      1.58655000       7
H               4.93258000      0.59835300     -3.05370000       1
H               4.84761000     -2.72430000      2.01358000       1
H               3.85687000      2.69058000     -3.58764000       1
H               5.55728000      0.16009700      2.06133000       1
C              -3.32894000     -4.69857000     -1.43244000       6
H               1.99708000      3.47099000      4.42702000       1
P              -3.76253000      4.30445000      1.92518000      15
H              -1.76832000     -5.85937000     -0.61753200       1
I              -3.30853000      2.52052000      4.55678000      53
H               5.52649000      1.93212000     -2.01049000       1
I              -5.77551000     -1.70433000     -1.43501000      53
N              -4.14288000      2.52509000     -3.91556000       7
I               2.71924000     -0.62395500      5.59166000      53
H              -1.73794000     -2.56777000     -5.50051000       1
I               3.24382000     -4.43098000      3.12761000      53
I              -5.89797000      2.02084000      1.05406000      53
H              -3.62258000      3.43019000     -3.90792000       1
H              -1.83211000     -0.93604700     -6.00942000       1
I               1.83976000     -1.88652000     -5.87966000      53
C               5.50452000      1.52867000     -3.02553000       6
I              -1.00218000     -5.37152000      3.60883000      53
I              -1.80003000     -1.45036000      6.16000000      53
H              -0.64261800      6.31607000     -1.78079000       1
H               5.59399000     -0.96033100      3.46160000       1
N              -2.75236000     -5.98303000     -0.94695800       7
C               0.37458600      6.50415000     -1.43244000       6
N               4.83460000      2.52509000     -3.91556000       7
H              -4.34614000     -4.88665000     -1.78079000       1
H               6.31029000     -2.01150000      1.44924000       1
H              -5.12062000      2.69058000     -3.58764000       1
H              -4.21250000      2.20979000     -4.90110000       1
N              -2.13934000     -1.91341000     -6.20062000       7
H              -4.04007000     -1.79504000     -5.31406000       1
H               5.64063000     -3.98847000     -0.60304000       1
H               4.63134000     -4.88665000     -1.78079000       1
P               5.21495000      4.30445000      1.92518000      15
P               0.56272000      3.90782000     -5.84476000      15
I              -1.12785000      1.42416000     -6.82760000      53
I              -1.10995000     -5.03100000     -4.84478000      53
I              -1.92570000      5.34532000     -4.27644000      53
H               4.76498000      2.20979000     -4.90110000       1
H               0.36666900      7.21424000     -0.60304000       1
H              -3.33683000     -6.45338000     -0.22622500       1
H               0.99727300      6.87820000     -2.24792000       1
P               1.51143000     -6.89826000      1.92518000      15
I               4.40638000      5.82593000     -0.71421300      53
I               2.70134000      5.83120000      3.60883000      53
H              -2.69035000     -6.67132000     -1.72792000       1
I              -4.57110000      5.82593000     -0.71421300      53
H               5.35490000      3.43019000     -3.90792000       1
H               4.93742000     -1.79504000     -5.31406000       1
H               6.52019000      1.36507000     -3.39319000       1
C               5.64855000     -4.69857000     -1.43244000       6
C              -3.61311000     -2.05432000     -6.28528000       6
H              -1.71950000     -2.16813000     -7.12023000       1
I               5.66895000      2.52052000      4.55678000      53
I              -2.03014000      6.77174000      3.12761000      53
I              -5.73367000     -4.43098000      3.12761000      53
H               6.27123000     -4.32452000     -2.24792000       1
H              -6.86779000      2.23891000      3.31621000       1
I               3.34826000     -5.85740000     -4.27644000      53
H              -3.49691000     -3.36549000      6.52852000       1
P              -8.15321000      0.46218500     -0.55695100      15
I               7.66904000      2.83979000      0.47336600      53
H              -3.84883000     -3.08950000     -6.54112000       1
H              -3.98108000     -1.37608000     -7.05807000       1
P              -3.88887000      0.87485000      7.21532000      15
I               2.59357000      6.17172000     -4.84478000      53
H               1.12294000      0.08252290      8.18852000       1
H              -4.08683000     -4.58589000      5.53534000       1
I               3.11815000      2.36470000     -7.30883000      53
I               7.91946000     -1.38371000     -2.32869000      53
I              -6.25824000     -0.62395500      5.59166000      53
C               5.36437000     -2.05432000     -6.28528000       6
I              -7.61105000      2.41351000     -3.06915000      53
H               5.64066000     -6.45338000     -0.22622500       1
P               1.38576000     -0.10258700     -8.51126000      15
H              -0.38330700      6.61683000      5.53534000       1
H              -6.88623000      1.83927000      4.93593000       1
H              -0.51694800     -0.47960500      8.65565000       1
N               6.22513000     -5.98303000     -0.94695800       7
H               4.89065000     -4.58589000      5.53534000       1
I               1.49211000     -4.38216000      7.36729000      53
H              -0.42635000      8.47842000      2.01358000       1
H               4.99640000     -1.37608000     -7.05807000       1
N              -4.01721000     -4.27059000      6.52087000       7
N              -7.28763000      2.49363000      4.23582000       7
H               1.65138000     -7.77253000     -3.90792000       1
H              -7.04228000      5.34335000     -0.61753200       1
H               5.12865000     -3.08950000     -6.54112000       1
P               5.08861000      0.87485000      7.21532000      15
H              -0.21570700      5.00539000      7.38274000       1
H               3.98254000     -4.10510000      6.84880000       1
H              -6.98040000      3.47099000      4.42702000       1
H               1.76479000     -5.36737000     -6.97484000       1
C               0.50025500     -0.29153000      9.00400000       6
H               1.13885000     -2.26428000      8.70852000       1
H              -1.70644000     -7.73172000      4.42702000       1
P              -7.71807000     -3.53219000     -3.22112000      15
I               2.77117000      3.02333000      8.10774000      53
H               5.48057000     -3.36549000      6.52852000       1
I              -5.62922000     -5.85740000     -4.27644000      53
H              -2.33163000     -5.43061000      7.04325000       1
H               1.37190000      5.77211000      7.04325000       1
I               8.91887000     -1.17018000      2.03496000      53
H               0.20423200     -4.97770000     -7.77012000       1
P              -4.01454000      7.67053000     -3.22112000      15
H               0.15334300     -8.51214000     -3.58764000       1
N               4.96027000     -4.27059000      6.52087000       7
I              -0.62401100     -9.18187000      1.05406000      53
I               3.96551000     -8.36293000      0.47336600      53
I              -6.27615000      5.83120000      3.60883000      53
H               7.20917000     -5.85937000     -0.61753200       1
H              -7.96431000      4.53140000     -1.72792000       1
H               6.28714000     -6.67132000     -1.72792000       1
I              -9.03610000     -1.17018000      2.03496000      53
H               1.03633000      9.19121000      1.44924000       1
H               7.14537000     -0.93604700     -6.00942000       1
H              -4.99495000     -4.10510000      6.84880000       1
N               6.83815000     -1.91341000     -6.20062000       7
I              -7.13773000     -1.88652000     -5.87966000      53
H               7.23955000     -2.56777000     -5.50051000       1
N               0.01424140      9.32505000      1.58655000       7
C               0.35622600      5.93571000      7.41091000       6
N              -0.31368800      6.93213000      6.52087000       7
C               1.27479000     -5.13156000     -7.92193000       6
H               1.72809000     -4.24694000     -8.37511000       1
H              -0.46586800      9.52096000      0.67963000       1
I               7.17746000     -1.45036000      6.16000000      53
N               1.13108000     -8.67763000     -3.91556000       7
I              -1.94631000      2.70271000      9.00143000      53
I              -2.33709000     -8.78920000     -3.06915000      53
N              -8.02632000      5.21968000     -0.94695800       7
H              -3.85541000     -8.17176000      3.37837000       1
H               1.82297000     -9.27060000     -2.01049000       1
I              -5.85934000      2.36470000     -7.30883000      53
N               1.07684000     -1.57599000      9.48948000       7
P               4.96294000      7.67053000     -3.22112000      15
C              -3.34730000     -5.26701000      7.41091000       6
H              -1.59383000     -8.96381000      3.31621000       1
I              -0.74968100     -2.38620000     -9.38238000      53
H              -3.50917000      5.83535000     -6.97484000       1
I              -5.01197000     -8.36293000      0.47336600      53
I              -2.07198000      9.49839000     -1.43501000      53
I               7.05179000      5.34532000     -4.27644000      53
P               9.80176000      0.46218500     -0.55695100      15
H              -8.61079000      4.74933000     -0.22622500       1
H               0.49233800      0.41856700      9.83340000       1
H               8.95784000      1.31754000      3.89532000       1
P              -3.14080000     -7.29490000     -5.84476000      15
N              -2.01367000     -8.70909000      4.23582000       7
H              -8.99713000      1.31754000      3.89532000       1
I              -8.27462000     -5.37679000     -0.71421300      53
P              -8.28909000     -2.88786000      4.59168000      15
H               8.82560000      3.03096000      3.37837000       1
H              -1.29142000      7.09762000      6.84880000       1
C              -8.76141000      2.35272000      4.15116000       6
I               1.96543000     -8.68220000      4.55678000      53
I              -0.18428200      5.62549000     -8.40148000      53
I              -6.38391000      6.17172000     -4.84478000      53
H               2.06087000     -1.45233000      9.81891000       1
