200
cutoff_factor=1.20000000 nneightol=1.20000000 Lattice="29.56041000       0.00000000       0.00000000       0.00000000      29.21998000       0.00000000       0.00000000       0.00000000      28.18784000" Properties=species:S:1:pos:R:3:Z:I:1
I              -1.15375000      0.08046480     -0.68396800      53
H               1.09942000      0.61252500     -1.70567000       1
P               0.18396100     -1.60276000      1.68752000      15
N               1.95180000      1.02821000     -2.14180000       7
I               2.47696000      0.67026600      2.00344000      53
H              -0.81159100      3.10145000      0.70478300       1
H               2.05169000      1.97522000     -1.71184000       1
H               2.77150000      0.45388900     -1.90095000       1
I               2.09917000     -3.04916000     -0.44732400      53
H              -1.44773000      2.39729000      2.95019000       1
H              -2.59096000      3.00425000      0.90692900       1
C              -1.68366000      3.53705000      1.19736000       6
C               1.76457000      1.14812000     -3.61786000       6
H              -0.63553900     -3.72965000     -1.85477000       1
I              -1.45017000      0.01713310      3.96395000      53
H               0.88858900      1.77345000     -3.80455000       1
H               1.61204000      0.14962500     -4.03009000       1
P              -3.37979000      0.93368500     -2.79023000      15
N              -1.51082000      3.39926000      2.67285000       7
I              -2.05807000     -3.82090000      1.47764000      53
H              -1.55640000     -2.99082000     -3.20700000       1
I               1.75478000      4.26828000     -0.68473700      53
H              -2.42141000     -3.59305000     -1.75427000       1
C              -1.56962000     -3.74844000     -2.42032000       6
H              -4.36582000     -1.91621000      0.68928500       1
H              -0.64915200      3.88208000      2.99964000       1
H              -4.29851000     -1.15319000      2.31199000       1
H              -1.76928000      4.59852000      0.95747500       1
H               4.21687000     -2.50095000      1.13689000       1
H               2.65704000      1.60819000     -4.04470000       1
C              -4.93530000     -1.38597000      1.45544000       6
I              -1.83336000      3.69522000     -3.42812000      53
H               4.31555000     -1.77785000      2.64545000       1
I               1.63899000     -3.22381000      4.02176000      53
H              -2.32875000      3.79767000      3.17481000       1
H              -5.37204000     -0.47330300      1.04360000       1
P               3.83911000      3.55967000      1.71510000      15
H               0.84003900      0.13242200      5.45086000       1
I              -1.74285000     -0.45931100     -5.25301000      53
H               5.53475000     -0.47330300      1.04360000       1
N               4.86349000     -2.27275000      1.91815000       7
I              -5.11623000      2.49102000     -0.61652100      53
I              -4.95412000     -1.76968000     -2.32884000      53
H               2.51728000      0.00040962      5.36891000       1
H               1.94132000     -5.71496000      0.95747500       1
I               2.50591000     -2.42312000     -5.06221000      53
H              -1.11072000     -3.41720000      5.01511000       1
N              -1.70839000     -5.09159000     -3.05854000       7
N               1.72004000      0.19649900      6.00127000       7
C               5.97149000     -1.38597000      1.45544000       6
I               5.79056000      2.49102000     -0.61652100      53
I               1.68558000      4.82878000      3.80680000      53
P               3.90300000     -4.21020000     -2.82403000      15
H              -0.91115600     -5.28768000     -3.69090000       1
H              -1.71949000     -5.83873000     -2.33198000       1
H               5.22582000     -3.15276000      2.33171000       1
H               1.87204000      2.29727000      5.85281000       1
I               5.95267000     -1.76968000     -2.32884000      53
P               0.19239700      6.10329000     -2.82403000      15
N              -6.04331000     -2.27275000      1.91815000       7
H              -2.58839000     -5.15567000     -3.60895000       1
H              -2.87917000     -3.25195000      5.25526000       1
H               6.54098000     -1.91621000      0.68928500       1
H              -5.68097000     -3.15276000      2.33171000       1
H               1.70894000     -0.55064100      6.72783000       1
C              -2.00319000     -3.87727000      5.44195000       6
I              -4.97245000      2.86497000      3.99759000      53
C               1.85881000      1.53965000      6.63949000       6
H               6.60828000     -1.15319000      2.31199000       1
C               2.02694000     -6.77643000      1.19736000       6
H              -6.68993000     -2.50095000      1.13689000       1
H              -1.91321000      1.87264000     -6.72810000       1
P              -3.57537000      1.07789000      6.23578000      15
H              -6.59125000     -1.77785000      2.64545000       1
H              -2.15573000     -4.87577000      5.02972000       1
H               1.38184000     -6.51582000      3.17481000       1
H              -5.43009000      4.47476000     -2.33198000       1
H              -4.07758000     -1.40601000     -6.06017000       1
H               5.47670000      4.47476000     -2.33198000       1
H               1.11964000     -7.30924000      0.90692900       1
I              -1.61143000      7.26433000     -0.44732400      53
I               2.31760000      5.04253000     -5.09586000      53
P               0.41067800     -1.72842000     -7.34471000      15
H               1.00703000      1.69504000      7.30554000       1
I               5.40675000      1.80159000     -5.03805000      53
I              -5.50004000      1.80159000     -5.03805000      53
H               1.51522000      7.16073000      2.33171000       1
I               1.87723000     -6.61827000     -3.42812000      53
I               5.93434000      2.86497000      3.99759000      53
H              -2.82348000      3.24754000     -6.41436000       1
H               3.06145000     -6.43141000      2.99964000       1
N               2.19978000     -6.91423000      2.67285000       7
P              -3.35709000     -6.75382000      1.71510000      15
I              -1.52569000      3.51841000      6.73097000      53
H              -4.62175000      5.02581000     -3.69090000       1
H              -0.53074900      3.87221000     -6.74782000       1
H               4.60780000      5.15782000     -3.60895000       1
H               2.89901000     -7.21204000      0.70478300       1
I               5.30566000     -1.33018000      5.63169000      53
I               1.70969000      1.20450000     -7.58217000      53
H               2.79289000      1.55844000      7.20504000       1
H               0.50626900      7.81254000      1.13689000       1
H               5.14961000     -1.49042000     -5.88500000       1
I              -1.40564000     -7.82247000     -0.61652100      53
N              -2.27554000      2.75265000     -7.14166000       7
I              -5.60113000     -1.33018000      5.63169000      53
P               7.52700000      0.93368500     -2.79023000      15
P              -7.06768000      3.55967000      1.71510000      15
H              -4.34614000      6.58383000     -1.85477000       1
N              -5.41899000      5.22190000     -3.05854000       7
H              -1.71607000     -3.05018000      7.34797000       1
I              -5.44142000     -6.04520000     -0.68473700      53
N               5.48781000      5.22190000     -3.05854000       7
I               5.46538000     -6.04520000     -0.68473700      53
N              -1.81596000     -3.99719000      6.91801000       7
N              -4.93925000     -1.88883000     -6.38696000       7
H              -4.87616000     -2.89080000     -6.10962000       1
N               1.15289000      8.04074000      1.91815000       7
H              -5.75719000     -1.49042000     -5.88500000       1
H              -8.13530000      0.45388900     -1.90095000       1
P               3.75923000     -4.09171000      6.26958000      15
I              -2.07161000      7.08968000      4.02176000      53
I               5.13812000      6.49259000      1.47764000      53
H               4.77479000      6.72044000     -1.75427000       1
I              -0.95147400     -4.61782000     -7.05637000      53
C              -1.16754000      3.63943000     -7.60437000       6
I              -1.26185000     -7.44851000      3.99759000      53
H              -0.99626800     -4.57151000      7.15886000       1
I               5.39618000     -5.48471000      3.80680000      53
P              -7.00380000     -4.21020000     -2.82403000      15
I              -2.01299000     -0.75711300      8.37507000      53
I              -5.51062000     -5.48471000      3.80680000      53
I              -8.42984000      0.67026600      2.00344000      53
H               2.26286000     -7.91620000      2.95019000       1
C              -5.28021000      6.56504000     -2.42032000       6
I              -4.87860000     -5.27096000     -5.09586000      53
I              -5.76867000      6.49259000      1.47764000      53
H              -2.92216000      2.52445000     -7.92292000       1
P               0.04863650      6.22177000      6.26958000      15
H               6.28504000      5.02581000     -3.69090000       1
H               2.83038000      8.39727000      0.68928500       1
H               8.31583000      3.00425000      0.90692900       1
H              -6.29899000      5.15782000     -3.60895000       1
N               5.96754000     -1.88883000     -6.38696000       7
H              -0.59805100      3.10918000     -8.37052000       1
H               0.60494900      8.53563000      2.64545000       1
H               5.04047000      5.43772000      5.02972000       1
C               5.62658000      6.56504000     -2.42032000       6
H              -2.66835000     -4.41287000      7.35414000       1
P               3.95173000      3.42264000     -7.37229000      15
I               2.02280000     -2.53438000      8.44329000      53
H               6.03063000     -2.89080000     -6.10962000       1
I               2.24207000      8.54380000     -2.32884000      53
H              -8.85510000      1.97522000     -1.71184000       1
H               6.82921000     -1.40601000     -6.06017000       1
N              -8.95499000      1.02821000     -2.14180000       7
H              -6.13200000      6.72044000     -1.75427000       1
C               2.26089000      8.92752000      1.45544000       6
H              -8.24975000      1.60819000     -4.04470000       1
I              -8.80763000     -3.04916000     -0.44732400      53
H              -1.60428000      4.55209000     -8.01621000       1
H               8.48539000     -3.59305000     -1.75427000       1
H              -5.86632000      5.43772000      5.02972000       1
I              -1.20469000      7.89037000     -5.06221000      53
H               6.56066000      6.58383000     -1.85477000       1
I               6.02819000     -5.27096000     -5.09586000      53
C              -5.11209000     -1.75104000     -7.86245000       6
P              -3.52664000      8.71073000      1.68752000      15
H              -5.26699000      7.32267000     -3.20700000       1
H               0.88711500     -7.06594000     -6.41436000       1
H              -4.24002000     -2.18664000     -8.35503000       1
H              -5.19771000     -0.68956600     -8.10233000       1
P               7.33143000      1.07789000      6.23578000      15
I               8.84872000     -3.82090000      1.47764000      53
H               4.88740000     -2.28384000     -8.15288000       1
I               9.75304000      0.08046480     -0.68396800      53
H               5.63980000      7.32267000     -3.20700000       1
P               0.33080300     -9.37980000     -2.79023000      15
H              -4.82132000      6.89628000      5.01511000       1
H               4.31702000      7.06154000      5.25526000       1
I               2.18491000     -6.79508000      6.73097000      53
H               3.17985000     -6.44128000     -6.74782000       1
H               2.89768000      9.16030000      2.31199000       1
H               2.32003000      7.42269000     -6.10962000       1
C              -9.14222000      1.14812000     -3.61786000       6
C               5.19301000      6.43621000      5.44195000       6
H               8.57804000      3.79767000      3.17481000       1
C               5.79470000     -1.75104000     -7.86245000       6
H               5.70908000     -0.68956600     -8.10233000       1
I              -1.67365000     -1.01981000     -9.74455000      53
H              -5.14450000     -8.33827000     -1.71184000       1
C               9.22313000      3.53705000      1.19736000       6
H              -8.38952000      0.00040962      5.36891000       1
H              -9.80737000      0.61252500     -1.70567000       1
I              -1.78945000     -8.51190000     -5.03805000      53
H               1.82415000      9.84018000      1.04360000       1
H               2.10632000     -5.76139000     -8.01621000       1
I              -8.40088000     -2.42312000     -5.06221000      53
I              -9.15201000      4.26828000     -0.68473700      53
H               8.02762000     -3.25195000      5.25526000       1
