200
cutoff_factor=1.20000000 nneightol=1.20000000 Lattice="28.33914000       0.00000000       0.00000000       0.00000000      28.40366000       0.00000000       0.00000000       0.00000000      29.31877000" Properties=species:S:1:pos:R:3:Z:I:1
P              -0.52967200      0.05534150     -0.00021580      15
I               2.18406000     -1.75170000     -0.47360900      53
I               1.28145000      2.69012000      0.00573212      53
I              -0.01949240     -0.31679500      3.18218000      53
I              -1.11499000      0.15830100     -3.14995000      53
I              -2.23567000     -2.75121000     -0.02353890      53
I              -3.22589000      1.72982000      0.54969900      53
H               2.56838000     -0.17091600      2.73900000       1
H              -0.11814500     -2.84329000      2.90140000       1
H              -0.66767600      3.18257000     -2.51636000       1
H               3.82763000      0.02608210     -1.86836000       1
H              -0.23696700     -3.98559000      1.67152000       1
H              -1.27284000     -3.43216000     -2.39857000       1
H               4.02631000      0.10808000      1.91445000       1
N               3.59627000     -0.32729400      2.75831000       7
H               2.43592000     -0.07312530     -3.83920000       1
H              -0.50996700      3.19263000      3.25995000       1
H              -3.66462000      0.22589800     -2.81397000       1
N               0.03604930     -3.84584000      2.66456000       7
H               3.74689000     -1.35582000      2.73278000       1
H               1.05380000     -4.04104000      2.76465000       1
N               4.19344000      0.38807800     -2.77175000       7
C              -0.26014400      3.87042000     -3.26018000       6
H               4.06117000      1.42009000     -2.81380000       1
H               0.74160800      4.19652000     -2.97116000       1
H              -0.82300200     -3.22548000     -4.02056000       1
H              -4.86040000      0.10808000      1.91445000       1
H              -0.17980300      4.97869000      1.67152000       1
C               3.50568000     -0.28267400     -3.90969000       6
N              -1.20247000     -3.89718000     -3.32706000       7
H              -3.62477000      0.06197870      3.98378000       1
H              -5.05908000      0.02608210     -1.86836000       1
H              -0.24017000      3.40037000     -4.24584000       1
N              -4.69327000      0.38807800     -2.77175000       7
H               3.68874000     -1.35730000     -3.83935000       1
C              -0.70422300      4.22876000      3.54659000       6
H               0.68444400     -4.76776000     -2.97116000       1
H               1.11097000      4.92324000      2.76465000       1
H              -4.82554000      1.42009000     -2.81380000       1
N               0.09321290      5.11844000      2.66456000       7
C               4.18722000      0.25713600      3.99040000       6
H               3.99490000      1.33240000      3.98887000       1
H              -1.76180000      4.46928000      3.41570000       1
H              -2.16789000     -4.16530000     -3.60364000       1
H              -1.81896000     -4.49500000      3.41570000       1
H               5.22209000      0.22589800     -2.81397000       1
I               5.66082000      1.72982000      0.54969900      53
C              -0.76138700     -4.73552000      3.54659000       6
N              -5.29044000     -0.32729400      2.75831000       7
H              -5.13982000     -1.35582000      2.73278000       1
P               3.93017000     -4.50395000     -0.00562210      15
P               3.98733000      4.46033000     -0.00562210      15
C              -0.31730700     -5.09386000     -3.26018000       6
H               3.71824000     -0.21404200      4.85717000       1
H              -1.21568000      5.53212000     -2.39857000       1
N              -1.14531000      5.06710000     -3.32706000       7
C              -4.69949000      0.25713600      3.99040000       6
I               3.57857000     -3.96032000      3.16951000      53
H               3.91243000      0.11422600     -4.84259000       1
H              -0.72483900     -5.78171000     -2.51636000       1
H              -2.11073000      4.79898000     -3.60364000       1
H              -0.39800700      4.40289000      4.58079000       1
I               1.22429000     -6.27416000      0.00573212      53
P              -0.43462600      0.09969810      6.41288000      15
H              -4.89181000      1.33240000      3.98887000       1
P              -0.78299300     -0.12517900     -6.41258000      15
H              -0.45517000     -4.56139000      4.58079000       1
I               1.23184000     -2.55734000     -5.85986000      53
I              -2.17850000      6.21307000     -0.02353890      53
H               5.26194000      0.06197870      3.98378000       1
H              -5.19797000     -1.35730000     -3.83935000       1
I               4.22299000      3.99034000     -3.16425000      53
P              -4.89938000      4.46033000     -0.00562210      15
H              -0.56713100     -5.77165000      3.25995000       1
C              -5.38103000     -0.28267400     -3.90969000       6
P              -4.95654000     -4.50395000     -0.00562210      15
H              -0.06098170      6.12099000      2.90140000       1
I               1.59349000      1.95171000     -6.37484000      53
H              -6.31833000     -0.17091600      2.73900000       1
I              -4.66372000      3.99034000     -3.16425000      53
H              -4.97428000      0.11422600     -4.84259000       1
I              -6.70265000     -1.75170000     -0.47360900      53
I               3.63573000      5.00396000      3.16951000      53
I              -2.54433000      2.42265000      6.01137000      53
H              -0.29733400     -5.56392000     -4.24584000       1
H              -0.76583800      5.73880000     -4.02056000       1
I               1.94185000      2.17658000      6.45061000      53
H              -5.16847000     -0.21404200      4.85717000       1
I               6.65104000     -2.75121000     -0.02353890      53
I               4.16583000     -4.97394000     -3.16425000      53
I              -2.81638000     -2.02100000      6.43662000      53
I              -5.30814000     -3.96032000      3.16951000      53
I              -3.16475000     -2.24587000     -6.38883000      53
H              -6.45079000     -0.07312530     -3.83920000       1
I               1.58021000     -2.33246000      6.96559000      53
I              -4.72089000     -4.97394000     -3.16425000      53
I               2.24122000      7.21258000     -0.47360900      53
I              -2.89269000      2.19777000     -6.81408000      53
I              -5.25098000      5.00396000      3.16951000      53
I              -3.28306000     -7.23446000      0.54969900      53
I              -7.60526000      2.69012000      0.00573212      53
P               8.35704000      0.05534150     -0.00021580      15
I               7.77172000      0.15830100     -3.14995000      53
P               3.67056000      4.34362000     -6.40824000      15
H               3.36987000     -0.43891900     -7.96828000       1
P               3.61339000     -4.62067000     -6.40824000      15
H               6.71882000     -4.16530000     -3.60364000       1
H               7.61387000     -3.43216000     -2.39857000       1
P               3.96176000     -4.39579000      6.41721000      15
I               1.28900000      6.40695000     -5.85986000      53
P               4.01892000      4.56849000      6.41721000      15
I               5.72196000     -2.24587000     -6.38883000      53
P              -0.58683600     -8.90894000     -0.00021580      15
H               3.80406000      7.60847000      2.73278000       1
H               4.00400000     -7.54419000     -2.81380000       1
P              -0.47250900      9.01962000     -0.00021580      15
H               7.06775000     -4.49500000      3.41570000       1
H               6.77598000      4.79898000     -3.60364000       1
H               4.26080000      0.33910200      7.98286000       1
I               6.34238000      2.42265000      6.01137000      53
I               6.07033000     -2.02100000      6.43662000      53
H               7.12491000      4.46928000      3.41570000       1
I               6.70821000      6.21307000     -0.02353890      53
H               8.21903000      3.18257000     -2.51636000       1
I               5.60366000     -7.23446000      0.54969900      53
P              -4.92495000     -4.39579000      6.41721000      15
I               0.03767120      8.64749000      3.18218000      53
H              -4.62591000      0.33910200      7.98286000       1
N               7.68424000     -3.89718000     -3.32706000       7
H              -7.83291000     -4.04104000      2.76465000       1
I              -2.60149000     -6.54163000      6.01137000      53
P              -4.86779000      4.56849000      6.41721000      15
H              -0.74637300      4.17801000     -8.24466000       1
H               3.74590000      7.60698000     -3.83935000       1
H              -0.47463500     -3.00060000      8.80490000       1
H               0.10819600      3.62524000      8.57961000       1
P              -5.21615000      4.34362000     -6.40824000      15
I               5.99402000      2.19777000     -6.81408000      53
H               2.78429000      0.15175100      8.98626000       1
P              -9.41638000      0.05534150     -0.00021580      15
H              -4.88271000     -7.54419000     -2.81380000       1
I              -1.17215000     -8.80598000     -3.14995000      53
I               8.86722000     -0.31679500      3.18218000      53
I              -8.90620000     -0.31679500      3.18218000      53
H               3.93774000     -7.63188000      3.98887000       1
P              -5.27332000     -4.62067000     -6.40824000      15
H               8.37674000      3.19263000      3.25995000       1
H              -5.08266000      7.60847000      2.73278000       1
I               1.88469000     -6.78770000      6.45061000      53
H              -0.80353700     -4.78627000     -8.24466000       1
H               8.06371000     -3.22548000     -4.02056000       1
H               2.62555000      8.79337000      2.73900000       1
I               1.53632000     -7.01258000     -6.37484000      53
H              -7.77574000      4.92324000      2.76465000       1
H               3.64654000      1.10752000     -8.83658000       1
H              -8.14510000      4.19652000     -2.97116000       1
C               3.83885000      0.03225960     -8.83506000       6
H               8.76857000     -2.84329000      2.90140000       1
I              -0.36785900     -0.54167100     -9.64327000      53
H               8.64974000     -3.98559000      1.67152000       1
H              -3.97314000     -0.16289800     -8.84167000       1
H              -5.51684000     -0.43891900     -7.96828000       1
I              -1.05782000      9.12258000     -3.14995000      53
C               3.85405000     -0.05779740      8.91576000       6
I              -0.76662000      0.38317800      9.67550000      53
I              -6.94486000      2.17658000      6.45061000      53
I               1.63737000      6.63182000      6.96559000      53
H               7.67104000      5.53212000     -2.39857000       1
N               3.65343000      8.63699000      2.75831000       7
I              -3.10759000      6.71841000     -6.38883000      53
I              -0.07665600     -9.28108000      3.18218000      53
I              -6.64549000      7.21258000     -0.47360900      53
N               7.74140000      5.06710000     -3.32706000       7
I              -2.75922000      6.94328000      6.43662000      53
H               2.51122000     -9.13520000      2.73900000       1
C               8.18249000      4.22876000      3.54659000       6
H              -9.00486000     -2.84329000      2.90140000       1
H               3.77047000     -8.93820000     -1.86836000       1
I              -7.29322000      1.95171000     -6.37484000      53
H               3.96915000     -8.85620000      1.91445000       1
I              -7.66242000     -6.27416000      0.00573212      53
H              -3.72179000     -8.73838000     -2.81397000       1
H               4.03711000     -1.13243000      8.98610000       1
N               4.13628000     -8.57620000     -2.77175000       7
H              -4.94897000     -7.63188000      3.98887000       1
H              -8.20227000     -4.76776000     -2.97116000       1
H              -5.14081000      7.60698000     -3.83935000       1
H               3.88479000      8.99036000     -1.86836000       1
I              -7.65487000     -2.55734000     -5.85986000      53
H               2.49309000      8.89116000     -3.83920000       1
C               8.62657000      3.87042000     -3.26018000       6
N              -8.85066000     -3.84584000      2.66456000       7
I              -2.94986000     -6.76651000     -6.81408000      53
C               8.12532000     -4.73552000      3.54659000       6
H              -0.85833400      2.96775000     -9.56550000       1
N               8.92276000     -3.84584000      2.66456000       7
H              -9.12368000     -3.98559000      1.67152000       1
H               2.37876000     -9.03741000     -3.83920000       1
H               0.05103280     -5.33904000      8.57961000       1
H               4.91358000     -0.16289800     -8.84167000       1
