200
cutoff_factor=1.20000000 nneightol=1.20000000 Lattice="28.56231000       0.00000000       0.00000000       0.00000000      28.28351000       0.00000000       0.00000000       0.00000000      29.34921000" Properties=species:S:1:pos:R:3:Z:I:1
P               0.52990600     -0.69542800     -0.01934690      15
I              -1.13290000      1.72014000      1.31527000      53
I               0.91029300      1.12148000     -2.61641000      53
I              -2.07477000     -2.17781000     -1.09495000      53
H               0.40008000      3.51637000     -0.01171860       1
I               3.26106000      0.63904700      1.26940000      53
I               0.18471400     -2.31428000      2.73745000      53
H              -2.51368000      1.82823000     -2.18787000       1
H              -0.06460450      1.34518000      3.69071000       1
I               2.39111000     -2.85407000     -1.43902000      53
H              -3.69346000     -0.28646300     -2.07406000       1
H               0.17604400     -0.16281800      4.36952000       1
H               3.64360000      0.47144300     -2.53420000       1
N               0.73310900      4.43564000     -0.36713700       7
H               4.35637000      0.81607600     -1.07295000       1
H               0.44644200     -4.59130000      0.09053430       1
H              -2.76855000     -2.18243000      2.98233000       1
H              -4.43734000      0.81607600     -1.07295000       1
N              -0.02501000      0.83158600      4.59539000       7
C              -3.46494000      1.71505000     -2.71290000       6
N              -4.23125000      0.60511900     -2.07242000       7
H               0.38752500      4.54437000     -1.34498000       1
H               1.76965000      4.46170000     -0.35822300       1
H               0.71273400     -1.26285000     -4.75307000       1
H              -4.12279000     -1.22384000      2.59044000       1
H               0.96339000     -2.88000000     -4.01549000       1
N               4.56246000      0.60511900     -2.07242000       7
H               3.34768000     -3.16453000      2.12826000       1
H              -0.98285900      0.87746000      5.00265000       1
H              -3.97328000     -3.12709000      1.10551000       1
H              -3.29698000      1.45657000     -3.75965000       1
N              -3.80257000     -2.14239000      2.96212000       7
H               4.67092000     -1.22384000      2.59044000       1
H              -4.05469000      2.63083000     -2.63572000       1
H               5.10024000     -0.28646300     -2.07406000       1
C               0.97799600     -2.30518000     -4.94335000       6
C               0.16283600      5.52085000      0.48077900       6
H              -0.92661300      5.45637000      0.43587400       1
P              -3.82571000      3.06128000      2.62982000      15
C               0.10572100     -5.55217000      0.48077900       6
H               1.96945000      1.35161000      5.04313000       1
H               0.50937500      5.37930000      1.50592000       1
I              -5.53265000      0.63904700      1.26940000      53
H              -0.98372800     -5.61665000      0.43587400       1
H              -5.15011000      0.47144300     -2.53420000       1
C               0.98845800      1.41606000      5.51912000       6
C              -4.35647000     -3.24081000      2.12148000       6
H               4.82043000     -3.12709000      1.10551000       1
C               4.43724000     -3.24081000      2.12148000       6
H               0.45226000     -5.69372000      1.50592000       1
H               4.73902000      2.63083000     -2.63572000       1
P               0.60655600      2.96853000     -5.22216000      15
H              -4.17459000     -2.23846000      3.93348000       1
I              -1.15287000      5.01107000     -3.43628000      53
N               4.99114000     -2.14239000      2.96212000       7
C               5.32877000      1.71505000     -2.71290000       6
H               1.95899000     -2.36963000     -5.41934000       1
H              -0.99332100     -2.84378000     -5.45982000       1
H               0.72319500      2.45839000      5.70939000       1
I              -4.13098000      4.71291000     -0.10077900      53
I               2.39390000      4.58339000      3.64896000      53
H              -4.03967000     -4.19566000      2.54531000       1
P               4.96800000      3.06128000      2.62982000      15
I              -3.54846000      1.15763000      5.21627000      53
P              -3.85463000     -4.42052000     -2.62027000      15
H               4.61912000     -2.23846000      3.93348000       1
H               0.50355700      6.48172000      0.09053430       1
N              -0.03547170     -2.88965000     -5.86708000       7
H               0.97385100      0.84123500      6.44697000       1
I               4.66273000      4.71291000     -0.10077900      53
H              -5.44602000     -3.16453000      2.12826000       1
H               0.33041000     -6.52865000     -1.34498000       1
N               0.67599400     -6.63739000     -0.36713700       7
H               5.49673000      1.45657000     -3.75965000       1
H               4.75404000     -4.19566000      2.54531000       1
I              -3.55892000     -2.56361000     -5.24620000      53
H               1.71253000     -6.61132000     -0.35822300       1
I              -1.98769000      1.49755000     -6.38549000      53
P               0.55990200     -4.38325000      5.24030000      15
H               6.28003000      1.82823000     -2.18787000       1
I              -1.97723000      5.21879000      4.07698000      53
H               6.02515000     -2.18243000      2.98233000       1
I              -1.20998000     -6.06195000     -3.43628000      53
P               4.93908000     -4.42052000     -2.62027000      15
I               6.71894000     -2.17781000     -1.09495000      53
I              -6.40260000     -2.85407000     -1.43902000      53
H              -0.07506610     -2.37606000     -6.77176000       1
I               3.23171000      4.67155000     -4.42192000      53
H               0.16558300     -3.88406000     -6.09295000       1
I               2.38344000      0.86215200     -6.81351000      53
I               3.18506000     -2.68023000      6.04055000      53
I              -2.03434000     -5.85424000      4.07698000      53
I               5.24525000      1.15763000      5.21627000      53
I              -1.19952000     -2.34072000      7.02618000      53
H               0.34296500     -7.55665000     -0.01171860       1
I              -4.18809000     -6.36012000     -0.10077900      53
I               2.33679000     -6.48963000      3.64896000      53
I               5.23479000     -2.56361000     -5.24620000      53
I               4.60561000     -6.36012000     -0.10077900      53
I               7.66081000      1.72014000      1.31527000      53
P              -3.79751000      6.65250000     -2.62027000      15
P              -8.26380000     -0.69542800     -0.01934690      15
H              -7.02406000      4.46170000     -0.35822300       1
H              -3.98256000      6.87736000      2.54531000       1
I              -7.88341000      1.12148000     -2.61641000      53
I               3.17460000     -6.40147000     -4.42192000      53
I              -5.56199000      4.67155000     -4.42192000      53
P               0.61701700      6.68977000      5.24030000      15
H              -6.82426000      1.35161000      5.04313000       1
I              -5.60865000     -2.68023000      6.04055000      53
I              -6.39981000      4.58339000      3.64896000      53
I               2.44822000      8.21895000     -1.43902000      53
P               4.99619000      6.65250000     -2.62027000      15
P              -3.83617000     -0.65996100     -7.83265000      15
P              -3.84417000     -0.69928000      7.84220000      15
H               4.81115000      6.87736000      2.54531000       1
H               3.40480000      7.90849000      2.12826000       1
H              -3.91616000      7.94593000      1.10551000       1
H              -6.83472000     -2.36963000     -5.41934000       1
H              -3.28652000      5.17781000      6.70282000       1
H              -8.39363000      3.51637000     -0.01171860       1
H               0.49891300      1.65806000     -8.95655000       1
I               0.24182900      8.75874000      2.73745000      53
H               1.02050000      8.19302000     -4.01549000       1
C              -4.29935000      7.83221000      2.12148000       6
I              -2.01765000      8.89521000     -1.09495000      53
N              -8.06060000      4.43564000     -0.36713700       7
I               0.23136700      5.03750000     -7.72502000      53
H              -7.83032000     -2.88000000     -4.01549000       1
H              -4.12793000      5.11333000     -6.52899000       1
I               0.92075400      4.84271000      7.84606000      53
C               4.49436000      7.83221000      2.12148000       6
P              -3.88282000     -8.01174000      2.62982000      15
P               4.95754000     -0.65996100     -7.83265000      15
P               4.94954000     -0.69928000      7.84220000      15
H               7.81085000      0.87746000      5.00265000       1
I              -8.60899000     -2.31428000      2.73745000      53
P               9.32361000     -0.69542800     -0.01934690      15
I               2.40157000      0.86716600      9.02345000      53
H               4.87755000      7.94593000      1.10551000       1
I              -6.41027000      0.86215200     -6.81351000      53
H              -3.99302000      3.15612000     -7.91716000       1
H               0.22269800      7.18897000     -6.09295000       1
I              -1.14336000     -2.00110000     -9.14720000      53
I               6.80602000      1.49755000     -6.38549000      53
H              -8.08097000     -1.26285000     -4.75307000       1
H              -2.72190000      5.16935000     -7.48014000       1
I               6.81648000      5.21879000      4.07698000      53
H               4.66577000      5.11333000     -6.52899000       1
I              -1.19001000     -9.35288000      1.31527000      53
H              -8.34727000     -4.59130000      0.09053430       1
C              -7.81571000     -2.30518000     -4.94335000       6
H              -3.34363000     -5.89521000      6.70282000       1
H               0.34087100     -2.80741000      9.11749000       1
H               8.72910000      1.34518000      3.69071000       1
H               7.86709000      5.45637000      0.43587400       1
I              -5.61911000     -6.40147000     -4.42192000      53
H               7.80998000     -5.61665000      0.43587400       1
H              -8.40618000      4.54437000     -1.34498000       1
P               0.54944100     -8.10449000     -5.22216000      15
H              -8.61766000     -0.16281800      4.36952000       1
C              -7.80525000      1.41606000      5.51912000       6
I               8.97842000     -2.31428000      2.73745000      53
H               3.65406000      4.19268000      7.92827000       1
H              -8.85831000      1.34518000      3.69071000       1
H              -7.08117000     -6.61132000     -0.35822300       1
I              -2.06431000      1.54343000      9.36752000      53
H              -4.11181000     -8.44219000     -2.63572000       1
P               4.91088000     -8.01174000      2.62982000      15
H              -2.71144000      8.89059000      2.98233000       1
I               7.64084000      5.01107000     -3.43628000      53
H              -4.18505000     -5.95969000     -6.52899000       1
H               4.80069000      3.15612000     -7.91716000       1
H              -3.68300000      3.43478000      8.38841000       1
H              -5.38891000      7.90849000      2.12826000       1
I               0.17425200     -6.03552000     -7.72502000      53
I               6.75936000     -5.85424000      4.07698000      53
H              -2.57079000     -9.24479000     -2.18787000       1
H               9.19379000      3.51637000     -0.01171860       1
I              -6.45692000     -6.48963000      3.64896000      53
N              -3.75591000      5.20939000     -7.50035000       7
H              -0.93620600      8.22924000     -5.45982000       1
H               3.39434000      4.18725000     -8.33421000       1
H              -2.77902000     -5.90367000     -7.48014000       1
N               8.76870000      0.83158600      4.59539000       7
H               7.80039000     -2.84378000     -5.45982000       1
H               4.60866000     -5.95969000     -6.52899000       1
H               8.96975000     -0.16281800      4.36952000       1
N              -8.81872000      0.83158600      4.59539000       7
H              -8.28433000      5.37930000      1.50592000       1
H               4.68190000     -8.44219000     -2.63572000       1
H              -4.10135000     -4.72095000      7.82675000       1
I               0.86363900     -6.23031000      7.84606000      53
N               0.02164330      8.18337000     -5.86708000       7
C              -3.45447000      5.43628000      7.74956000       6
H               5.50719000      5.17781000      6.70282000       1
I               9.70400000      1.12148000     -2.61641000      53
C               1.03511000      8.76784000     -4.94335000       6
N              -3.74545000      8.93063000      2.96212000       7
C               0.15237500      1.79961000     -9.98169000       6
