200
cutoff_factor=1.20000000 nneightol=1.20000000 Lattice="28.95713000       0.00000000       0.00000000       0.00000000      28.52642000       0.00000000       0.00000000       0.00000000      28.78554000" Properties=species:S:1:pos:R:3:Z:I:1
H               0.83920900     -0.30876700      0.77169400       1
C               1.45921000     -1.11957000      0.38316300       6
H               0.55439400     -1.03295000     -1.51286000       1
N               0.75271400     -1.73845000     -0.77750000       7
H              -0.17181900     -2.11793000     -0.48369900       1
H               2.42170000     -0.73402700      0.03929220       1
H               1.60336000     -1.88607000      1.14612000       1
I               0.51484900      2.84037000      0.03883580      53
H               1.33228000     -2.48639000     -1.21311000       1
I              -2.73908000     -2.03946000      0.01584270      53
I              -0.92329700      0.22380800     -3.41651000      53
I              -0.64879800      0.38140800      3.55515000      53
H              -1.97932000      3.11746000      0.70672700       1
H              -3.34145000      1.85006000     -0.81634900       1
P               1.09364000      2.71712000     -3.09718000      15
I               3.47453000      0.66723300     -2.72198000      53
P               1.35386000      2.89763000      3.11887000      15
N              -3.00494000      3.29667000      0.67211400       7
C              -3.53600000      2.91363000     -0.66145800       6
H              -3.48332000      2.75790000      1.42479000       1
P              -3.23972000     -1.55622000      3.19645000      15
I               3.90717000      1.03217000      2.65467000      53
H              -3.02687000      3.51016000     -1.42084000       1
P              -3.49662000     -1.76698000     -3.15825000      15
H              -3.14289000      4.31211000      0.83089000       1
H               4.36306000      3.11235000     -0.67557600       1
I               2.99606000     -3.76426000     -2.78549000      53
H              -4.60999000      3.11235000     -0.67557600       1
I               3.22417000     -3.55046000      2.91174000      53
I              -1.23495000     -4.10047000      3.70844000      53
H              -3.16713000     -4.68481000      0.83089000       1
I              -5.06588000      1.03217000      2.65467000      53
I              -1.43852000     -4.25419000     -3.69777000      53
H               1.88204000     -1.37201000     -5.41494000       1
H               2.16180000     -1.10291000      5.45205000       1
H               5.63160000      1.85006000     -0.81634900       1
H               0.23740100     -2.58063000      5.41628000       1
I              -5.49852000      0.66723300     -2.72198000      53
I               0.49060800     -6.15655000      0.03883580      53
I              -1.41427000      4.74273000     -3.69777000      53
C               5.43705000      2.91363000     -0.66145800       6
H              -2.00356000     -5.87946000      0.70672700       1
H              -0.05727440     -2.85067000     -5.56586000       1
I              -1.21071000      4.89645000      3.70844000      53
H               5.48973000      2.75790000      1.42479000       1
H               0.52586600     -0.59316000     -6.29487000       1
H               0.78564900     -0.40173400      6.36559000       1
H              -3.05111000     -5.48676000     -1.42084000       1
N              -3.02918000     -5.70025000      0.67211400       7
I               6.23397000     -2.03946000      0.01584270      53
P               5.47644000     -1.76698000     -3.15825000      15
H              -6.55136000     -0.73402700      0.03929220       1
C               1.27216000     -1.39031000     -6.32105000       6
C               1.53194000     -1.19888000      6.33941000       6
H              -2.15628000      3.06230000     -5.48997000       1
I               3.02030000      5.23266000     -2.78549000      53
H              -1.96952000      3.30866000      5.49538000       1
H              -1.65183000      1.84698000      6.26376000       1
P               5.73333000     -1.55622000      3.19645000      15
H               1.35652000      6.51053000     -1.21311000       1
N               0.82087600     -2.51026000      6.27411000       7
N               5.96811000      3.29667000      0.67211400       7
H              -1.91161000      1.65555000     -6.39670000       1
H              -0.14757800      6.87899000     -0.48369900       1
N               0.56109300     -2.70168000     -6.38635000       7
I               3.24841000      5.44646000      2.91174000      53
P               1.32962000     -6.09929000      3.11887000      15
H              -4.11862000      1.63820000     -5.39681000       1
H              -3.93454000      1.89419000      5.47242000       1
I               1.48103000      2.74191000     -6.31156000      53
H               5.94618000      3.51016000     -1.42084000       1
C              -3.56025000     -6.08329000     -0.66145800       6
P               1.06940000     -6.27980000     -3.09718000      15
I               1.74081000      2.93334000      6.34890000      53
H               1.48934000     -3.30355000      6.24477000       1
N              -2.19841000      2.72188000      6.32750000       7
N              -2.45819000      2.53046000     -6.33296000       7
H              -3.50756000     -6.23901000      1.42479000       1
H               5.83016000      4.31211000      0.83089000       1
N               0.77695500      7.25847000     -0.77750000       7
H               4.33882000     -5.88457000     -0.67557600       1
I              -5.74888000     -3.55046000      2.91174000      53
H               1.62760000      7.11085000      1.14612000       1
H               1.22955000     -3.49497000     -6.41569000       1
H               4.85443000      1.63820000     -5.39681000       1
I              -3.68294000     -1.35632000      6.35102000      53
I              -2.71484000      6.95746000      0.01584270      53
H               5.80592000     -4.68481000      0.83089000       1
H              -4.63423000     -5.88457000     -0.67557600       1
H               1.90202000     -1.29434000     -7.20841000       1
H               0.20250800     -2.65924000      7.09460000       1
I              -5.97699000     -3.76426000     -2.78549000      53
I              -3.94272000     -1.54775000     -6.30944000      53
C              -7.51384000     -1.11957000      0.38316300       6
H               2.14183000     -1.18058000      7.24552000       1
H               5.03852000      1.89419000      5.47242000       1
H               6.99373000      3.11746000      0.70672700       1
H              -7.36969000     -1.88607000      1.14612000       1
C              -3.91550000      2.24481000     -6.28191000       6
C              -3.65572000      2.43623000      6.37855000       6
H              -0.02238170     -2.77206000     -7.24417000       1
H              -3.36569000     -7.14686000     -0.81634900       1
C               1.48345000      7.87735000      0.38316300       6
H              -1.89650000      3.25373000      7.17049000       1
H              -2.22931000      3.11723000     -7.16508000       1
H              -7.64077000     -2.48639000     -1.21311000       1
H               0.57863500      7.96397000     -1.51286000       1
H              -1.99377000     -5.68826000      5.49538000       1
C               5.41281000     -6.08329000     -0.66145800       6
H              -8.13384000     -0.30876700      0.77169400       1
H               5.92194000     -5.48676000     -1.42084000       1
I               5.03033000     -1.54775000     -6.30944000      53
N               5.94387000     -5.70025000      0.67211400       7
H              -0.03303330      6.14625000     -5.56586000       1
H              -4.44965000      3.19577000     -6.22501000       1
H               4.52340000      3.19577000     -6.22501000       1
C               5.05755000      2.24481000     -6.28191000       6
H              -2.18053000     -5.93461000     -5.48997000       1
I               5.29011000     -1.35632000      6.35102000      53
H              -4.18987000      3.38720000      6.43545000       1
H               0.26164200      6.41629000      5.41628000       1
I              -5.95275000      5.23266000     -2.78549000      53
H               5.46549000     -6.23901000      1.42479000       1
I              -5.72464000      5.44646000      2.91174000      53
H              -3.85884000      1.82963000      7.26365000       1
N              -8.22034000     -1.73845000     -0.77750000       7
H              -4.19432000      1.70277000     -7.18804000       1
H               1.25380000      5.50195000     -6.41569000       1
H               1.51358000      5.69337000      6.24477000       1
H              -8.41866000     -1.03295000     -1.51286000       1
H               2.44594000      8.26289000      0.03929220       1
P              -3.47237000      7.22994000     -3.15825000      15
C               5.31733000      2.43623000      6.37855000       6
H               4.78318000      3.38720000      6.43545000       1
P              -3.21548000      7.44070000      3.19645000      15
P              -7.61919000      2.89763000      3.11887000      15
I               8.04975000      0.22380800     -3.41651000      53
H               0.86345000      8.68815000      0.77169400       1
H              -6.81125000     -1.10291000      5.45205000       1
H               4.77873000      1.70277000     -7.18804000       1
P              -7.87941000      2.71712000     -3.09718000      15
I              -8.45820000      2.84037000      0.03883580      53
I               1.71657000     -6.06358000      6.34890000      53
N               0.58533400      6.29524000     -6.38635000       7
I               1.45678000     -6.25501000     -6.31156000      53
H              -7.09101000     -1.37201000     -5.41494000       1
I               8.32425000      0.38140800      3.55515000      53
N               0.84511700      6.48666000      6.27411000       7
H               8.80123000     -2.11793000     -0.48369900       1
H               5.11421000      1.82963000      7.26365000       1
H               5.60736000     -7.14686000     -0.81634900       1
H               6.96949000     -5.87946000      0.70672700       1
I              -0.90858100      0.18998300     -9.10531000      53
N              -2.22265000     -6.27504000      6.32750000       7
I               3.88293000     -7.96475000      2.65467000      53
H               6.81677000      3.06230000     -5.48997000       1
I              -0.66351400      0.41523300      9.24395000      53
I              -0.67303900     -8.61551000      3.55515000      53
I               6.25821000      6.95746000      0.01584270      53
H               0.81496800     -9.30569000      0.77169400       1
N              -2.48243000     -6.46646000     -6.33296000       7
H              -1.92074000     -5.74319000      7.17049000       1
H              -9.14487000     -2.11793000     -0.48369900       1
I               7.53454000     -4.25419000     -3.69777000      53
I               3.45029000     -8.32969000     -2.72198000      53
N               6.51486000      2.53046000     -6.33296000       7
I              -0.94753800     -8.77311000     -3.41651000      53
H               7.00353000      3.30866000      5.49538000       1
I               7.73810000     -4.10047000      3.70844000      53
H               0.22674900      6.33768000      7.09460000       1
H              -4.21411000     -5.60972000      6.43545000       1
H              -2.25355000     -5.87969000     -7.16508000       1
H               1.90629000      7.62491000     -5.41494000       1
H               0.00185937      6.22486000     -7.24417000       1
H              -4.47390000     -5.80115000     -6.22501000       1
P               5.50068000      7.22994000     -3.15825000      15
H               4.49916000     -5.80115000     -6.22501000       1
H              -1.67607000     -7.14994000      6.26376000       1
I               7.55878000      4.74273000     -3.69777000      53
N               6.77464000      2.72188000      6.32750000       7
H               7.06144000      1.65555000     -6.39670000       1
H               9.52744000     -1.03295000     -1.51286000       1
H               4.75894000     -5.60972000      6.43545000       1
H              -3.95878000     -7.10273000      5.47242000       1
H               7.32122000      1.84698000      6.26376000       1
I              -5.09012000     -7.96475000      2.65467000      53
H               2.18605000      7.89401000      5.45205000       1
H               9.81226000     -0.30876700      0.77169400       1
C              -7.44111000     -1.19888000      6.33941000       6
C              -3.67996000     -6.56069000      6.37855000       6
I              -0.89905600      9.22073000     -3.41651000      53
I               7.76235000      4.89645000      3.70844000      53
I               9.48790000      2.84037000      0.03883580      53
N               9.72577000     -1.73845000     -0.77750000       7
I              -1.17873000     -4.06277000      8.96269000      53
H              -1.93585000     -7.34137000     -6.39670000       1
P               5.75757000      7.44070000      3.19645000      15
C               1.29640000      7.60661000     -6.32105000       6
P               1.09408000      2.70620000     -9.54159000      15
H              -4.14286000     -7.35871000     -5.39681000       1
