200
cutoff_factor=1.20000000 nneightol=1.20000000 Lattice="29.04151000       0.00000000       0.00000000       0.00000000      28.15595000       0.00000000       0.00000000       0.00000000      29.59865000" Properties=species:S:1:pos:R:3:Z:I:1
I               0.74978500      1.26452000      0.49459300      53
H              -1.48146000     -0.19082500     -1.64445000       1
P               2.37448000     -1.50885000      0.71706200      15
C              -1.61903000     -0.77537900     -2.55698000       6
H              -0.65507100     -1.11795000     -2.93960000       1
I              -0.25018100     -3.25545000      0.44312200      53
H               2.32536000      2.16630000     -1.34332000       1
H              -1.97228000     -2.54108000     -1.50036000       1
P              -1.84193000      3.08328000      0.68137800      15
H              -2.16196000     -0.38221800      2.98799000       1
I              -3.70076000      0.38388200      0.91538800      53
N              -2.44948000     -1.97070000     -2.23075000       7
I               2.59522000     -1.43033000     -2.46665000      53
H              -2.14293000     -0.18640200     -3.31332000       1
H              -0.78006100     -0.86059500      3.85359000       1
H               2.26156000      1.68020000      3.10600000       1
H              -3.37711000     -1.68311000     -1.87440000       1
N              -1.81844000     -0.85782500      3.84788000       7
I              -1.93500000      3.08020000     -2.51355000      53
N               2.93169000      2.79526000     -1.91485000       7
H              -1.96727000     -2.78411000      3.00573000       1
I               1.99574000     -1.41507000      3.85615000      53
H              -2.62018000     -2.54888000     -3.07917000       1
H               1.61067000      2.87468000     -3.55551000       1
H               3.64491000      2.23827000     -2.41584000       1
H               1.36874000      4.15196000     -2.31742000       1
H               3.40083000      3.43616000     -1.23991000       1
C               2.10673000      3.57514000     -2.87972000       6
C              -2.33884000     -2.25322000      3.88468000       6
H              -2.17321000     -0.33559700      4.67516000       1
C               2.85063000      2.49097000      3.53902000       6
I               5.11757000      0.38388200      0.91538800      53
I              -1.61814000      3.12422000      3.86027000      53
H               3.11020000      3.22451000      2.77462000       1
H               1.36285000     -4.92381000     -2.31742000       1
H               1.14721000      3.55500000      4.18959000       1
H              -3.43049000     -2.21539000      3.87464000       1
I              -0.24428700      5.82032000      0.44312200      53
H              -1.98277000     -2.73172000      4.79905000       1
H               3.75187000      2.09617000      4.01358000       1
N               2.02545000      3.16769000      4.58045000       7
I              -0.12106900      0.52716500     -5.90807000      53
I               4.25300000     -4.16714000      0.70186900      53
H               5.44122000     -1.68311000     -1.87440000       1
H               2.76713000      4.24158000     -3.43934000       1
H               1.74164000      2.48657000      5.31868000       1
H              -5.17342000      2.23827000     -2.41584000       1
I              -4.56533000     -4.16714000      0.70186900      53
P              -1.84782000     -5.99248000      0.68137800      15
P               2.50820000     -1.30473000     -5.64407000      15
H              -5.41750000      3.43616000     -1.23991000       1
I               4.25889000      4.90863000      0.70186900      53
H               2.76124000     -4.83419000     -3.43934000       1
C               2.10083000     -5.50063000     -2.87972000       6
P              -6.44384000     -1.50885000      0.71706200      15
H               3.39493000     -5.63961000     -1.23991000       1
I              -4.55944000      4.90863000      0.70186900      53
I              -1.94090000     -5.99557000     -2.51355000      53
N              -5.88663000      2.79526000     -1.91485000       7
H              -5.06646000      2.09617000      4.01358000       1
P              -1.94465000      3.17874000     -5.70354000      15
I              -6.22311000     -1.43033000     -2.46665000      53
H               2.56886000      3.90711000      5.07372000       1
H              -6.49296000      2.16630000     -1.34332000       1
H              -1.96639000      6.53468000     -1.50036000       1
H               5.38783000     -2.21539000      3.87464000       1
H               1.14132000     -5.52077000      4.18959000       1
N               6.36885000     -1.97070000     -2.23075000       7
I               4.26584000      1.34218000     -5.50938000      53
H              -5.70813000      3.22451000      2.77462000       1
H               3.10431000     -5.85126000      2.77462000       1
N               2.92580000     -6.28051000     -1.91485000       7
I               0.72009500     -3.99227000     -5.99357000      53
H              -1.96137000      6.29166000      3.00573000       1
I              -4.55248000      1.34218000     -5.50938000      53
I              -1.62403000     -5.95154000      3.86027000      53
H               6.65636000     -0.38221800      2.98799000       1
I              -3.62750000     -3.16529000     -5.50372000      53
H               1.60478000     -6.20109000     -3.55551000       1
I               0.67307700      1.25021000      7.22250000      53
C              -5.96770000      2.49097000      3.53902000       6
H               6.19815000     -2.54888000     -3.07917000       1
H               2.31947000     -6.90947000     -1.34332000       1
H              -6.55676000      1.68020000      3.10600000       1
H               6.67539000     -0.18640200     -3.31332000       1
H               6.84605000     -2.54108000     -1.50036000       1
H               7.33686000     -0.19082500     -1.64445000       1
P               2.35004000     -1.48152000      7.02268000      15
P               6.97640000      3.08328000      0.68137800      15
H              -2.61428000      6.52689000     -3.07917000       1
C               7.19930000     -0.77537900     -2.55698000       6
H               2.56296000     -5.16866000      5.07372000       1
I              -3.79766000      0.42323200      6.73265000      53
N               2.01956000     -5.90808000      4.58045000       7
N              -2.44358000      7.10506000     -2.23075000       7
I               0.74389100     -7.81124000      0.49459300      53
H              -1.73172000     -0.50839900     -7.65250000       1
C               6.47949000     -2.25322000      3.88468000       6
I               0.72598900      5.08349000     -5.99357000      53
H              -5.42339000     -5.63961000     -1.23991000       1
I              -0.25780100     -3.31808000      7.21684000      53
I               6.88332000      3.08020000     -2.51355000      53
I              -6.82259000     -1.41507000      3.85615000      53
P               2.38038000      7.56692000      0.71706200      15
H               6.85106000     -2.78411000      3.00573000       1
P              -2.00955000      3.11078000      7.08215000      15
C               2.84474000     -6.58480000      3.53902000       6
N               6.99988000     -0.85782500      3.84788000       7
H              -2.55894000     -1.92894000     -7.40754000       1
H               3.63902000     -6.83750000     -2.41584000       1
C              -6.71160000      3.57514000     -2.87972000       6
H               6.64512000     -0.33559700      4.67516000       1
H              -6.05119000      4.24158000     -3.43934000       1
I              -8.06854000      1.26452000      0.49459300      53
C              -2.33294000      6.82255000      3.88468000       6
H              -1.97688000      6.34404000      4.79905000       1
I               5.19083000     -3.16529000     -5.50372000      53
H               2.25567000     -7.39557000      3.10600000       1
H              -3.37121000      7.39266000     -1.87440000       1
I               5.02067000      0.42323200      6.73265000      53
P              -1.95054000     -5.89703000     -5.70354000      15
I               2.60111000      7.64544000     -2.46665000      53
H              -6.05709000     -4.83419000     -3.43934000       1
H              -0.64917700      7.95782000     -2.93960000       1
H              -7.20765000      2.87468000     -3.55551000       1
H               2.54087000      1.92854000     -7.92717000       1
N              -2.27512000     -1.24782000     -8.14577000       7
P              -6.31012000     -1.30473000     -5.64407000      15
H              -3.42460000      6.86038000      3.87464000       1
H              -5.71402000     -5.85126000      2.77462000       1
H               1.73575000     -6.58920000      5.31868000       1
I               7.20019000      3.12422000      3.86027000      53
H               8.16326000     -1.11795000     -2.93960000       1
N              -6.79287000      3.16769000      4.58045000       7
H               6.83555000     -2.73172000      4.79905000       1
I               2.00163000      7.66070000      3.85615000      53
N              -5.89253000     -6.28051000     -1.91485000       7
C              -1.61313000      8.30039000     -2.55698000       6
H              -7.44959000      4.15196000     -2.31742000       1
I              -3.62160000      5.91048000     -5.50372000      53
H               3.74597000     -6.97960000      4.01358000       1
H              -5.17931000     -6.83750000     -2.41584000       1
H              -6.24947000      3.90711000      5.07372000       1
H               8.03826000     -0.86059500      3.85359000       1
I               4.17361000     -4.13310000      6.81815000      53
H              -0.54870700     -2.31934000     -8.71264000       1
H              -0.77416800      8.21517000      3.85359000       1
H              -3.15336000     -0.86050700     -8.53663000       1
C              -6.71749000     -5.50063000     -2.87972000       6
H              -1.47557000      8.88494000     -1.64445000       1
I               8.56815000     -3.25545000      0.44312200      53
H              -7.07669000      2.48657000      5.31868000       1
P               6.97051000     -5.99248000      0.68137800      15
I              -4.64471000     -4.13310000      6.81815000      53
H              -7.45548000     -4.92381000     -2.31742000       1
I              -0.25190700      5.75769000      7.21684000      53
H               1.09315000      2.44488000     -8.85158000       1
N              -1.81255000      8.21794000      3.84788000       7
H               5.44711000      7.39266000     -1.87440000       1
I               4.17951000      4.94267000      6.81815000      53
I               2.89961000     -1.29128000     -8.86595000      53
C               2.18481000      2.40704000     -8.84154000       6
H              -7.67111000      3.55500000      4.18959000       1
H               2.35044000      4.32467000     -8.05106000       1
H              -2.15607000      8.69355000      2.98799000       1
H              -1.75651000     -0.41868100      9.28687000       1
I               6.87743000     -5.99557000     -2.51355000      53
P              -2.01544000     -5.96499000      7.08215000      15
P               6.87368000      3.17874000     -5.70354000      15
I              -3.70665000     -8.69188000      0.91538800      53
C              -1.44995000     -1.92453000     -9.18719000       6
H              -5.07235000     -6.97960000      4.01358000       1
H               6.20404000      6.52689000     -3.07917000       1
H              -1.48736000     -9.26659000     -1.64445000       1
H               5.39373000      6.86038000      3.87464000       1
C              -5.97359000     -6.58480000      3.53902000       6
H              -6.25536000     -5.16866000      5.07372000       1
H              -6.49886000     -6.90947000     -1.34332000       1
H               6.85194000      6.53468000     -1.50036000       1
I               5.19672000      5.91048000     -5.50372000      53
I              -4.63882000      4.94267000      6.81815000      53
H               2.34455000     -4.75110000     -8.05106000       1
I              -9.06851000     -3.25545000      0.44312200      53
P              -6.46829000     -1.48152000      7.02268000      15
I               9.56811000      1.26452000      0.49459300      53
I              -2.29894000      3.24520000     -8.87006000      53
H              -2.13704000      8.88936000     -3.31332000       1
H               6.85695000      6.29166000      3.00573000       1
H              -2.91297000     -1.78559000      9.17070000       1
N               6.37474000      7.10506000     -2.23075000       7
H               6.25939000     -1.92894000     -7.40754000       1
P               2.51410000      7.77104000     -5.64407000      15
P              -6.43795000      7.56692000      0.71706200      15
H               1.68040000      1.86663000      9.64705000       1
H              -9.47340000     -1.11795000     -2.93960000       1
N               2.70520000      3.80244000     -8.87834000       7
H              -2.14883000     -9.26217000     -3.31332000       1
H              -1.19037000     -1.19100000     -9.95160000       1
I               7.19429000     -5.95154000      3.86027000      53
N              -6.79877000     -5.90808000      4.58045000       7
