200
cutoff_factor=1.20000000 nneightol=1.20000000 Lattice="29.66688000       0.00000000       0.00000000       0.00000000      27.99341000       0.00000000       0.00000000       0.00000000      28.57674000" Properties=species:S:1:pos:R:3:Z:I:1
I              -0.97460100      0.17245500     -1.15287000      53
H               0.77356600      0.84264700      1.19932000       1
C               0.65979400      0.84065200      2.28519000       6
H              -0.27274300      0.34966500      2.57232000       1
H               0.33511800     -2.27062000     -2.01631000       1
H               1.83600000     -0.90189300      2.51798000       1
H               0.69123300      1.86107000      2.67231000       1
N               1.80057000      0.07749380      2.87488000       7
P               0.94664000      2.25348000     -2.59014000      15
P              -3.51767000     -1.37888000     -0.02943810      15
H               2.72084000      0.48715100      2.62397000       1
I               3.53458000      0.81258600     -1.40382000      53
C               0.66203500     -3.30934000     -2.08111000       6
H               1.34483000     -3.54826000     -1.26400000       1
I              -1.64405000     -3.45043000      1.56037000      53
I               2.83747000     -2.87872000      1.19053000      53
H               1.77432000      0.06076210      3.91510000       1
I               1.00368000      4.23510000     -0.04819900      53
I              -3.57711000      0.53388200      2.60050000      53
H              -0.19753400     -3.98338000     -2.06899000       1
H              -2.29126000      4.12554000     -0.00086083       1
H               2.20633000     -2.86641000     -3.43814000       1
N               1.39011000     -3.49332000     -3.37165000       7
H              -4.36836000      2.82973000     -0.08257690       1
H              -3.63650000      0.09170400     -3.80352000       1
I               1.00430000      0.40297900     -5.20784000      53
H               4.59100000      2.82973000     -0.08257690       1
H               0.76061900     -3.32779000     -4.18731000       1
H              -1.67009000      0.38183700     -5.20931000       1
H              -2.66380000     -2.86323000      3.92774000       1
I              -3.64755000     -3.24539000     -2.62621000      53
H               3.67737000      4.21332000     -0.03542420       1
I              -1.61377000      3.80251000     -3.79733000      53
P               5.44169000     -1.37888000     -0.02943810      15
C              -3.22503000      4.58672000     -0.33026900       6
I              -5.42478000      0.81258600     -1.40382000      53
P               0.95110500     -5.03737000      2.60025000      15
H              -3.30643000      4.55375000     -1.41851000       1
N              -4.36502000      3.81790000      0.24865700       7
I              -0.88480700      3.94094000      4.23706000      53
H               1.74447000     -4.47068000     -3.46883000       1
H              -4.35625000      3.83147000      1.28932000       1
N               4.59434000      3.81790000      0.24865700       7
I               5.38225000      0.53388200      2.60050000      53
H              -2.55605000      1.78045000     -5.16881000       1
N              -2.58240000      0.78995300     -5.49101000       7
H               4.60311000      3.83147000      1.28932000       1
C              -3.72916000      0.04690120     -4.89073000       6
H              -2.62363000     -1.84840000      5.29126000       1
I               0.93671900     -3.22588000      5.25223000      53
N              -2.64998000     -2.83890000      4.96906000       7
H              -3.28919000     -5.44528000      0.02409780       1
H              -1.73767000     -3.24702000      5.25075000       1
H              -3.68568000     -0.98880300     -5.23387000       1
H              -3.29059000      5.61728000      0.02409780       1
H               5.32286000      0.09170400     -3.80352000       1
P               0.94970600      6.02518000      2.60025000      15
I               2.82419000      4.40996000     -4.18424000      53
P              -3.47909000      2.35986000      5.23185000      15
I               3.54245000      4.40272000      3.65789000      53
I               5.31181000     -3.24539000     -2.62621000      53
H              -5.28199000      4.21332000     -0.03542420       1
H               4.30106000      0.52012300     -5.21609000       1
H              -6.23852000      0.48715100      2.62397000       1
I              -6.12189000     -2.87872000      1.19053000      53
I              -1.68135000      0.17365800      6.66273000      53
I               2.75661000      0.78110100      6.27583000      53
I               1.00507000     -6.82745000     -0.04819900      53
H              -4.65830000      0.52012300     -5.21609000       1
H              -2.59622000      0.76562400     -6.53233000       1
C               5.23020000      0.04690120     -4.89073000       6
I              -0.81582900     -3.49276000     -6.22301000      53
C              -3.22363000     -6.47583000     -0.33026900       6
H              -2.28986000     -6.93701000     -0.00086083       1
C               5.73433000      4.58672000     -0.33026900       6
H              -0.19893400      7.07918000     -2.06899000       1
H               5.65292000      4.55375000     -1.41851000       1
H               4.23348000     -3.10873000      5.24397000       1
H              -3.30504000     -6.50880000     -1.41851000       1
H               5.27368000     -0.98880300     -5.23387000       1
H               0.69164100      4.10591000      6.27275000       1
H              -7.12336000     -0.90189300      2.51798000       1
C              -3.79673000     -3.58195000      5.56933000       6
H               1.74307000      6.59187000     -3.46883000       1
H              -4.72588000     -3.10873000      5.24397000       1
N              -7.15879000      0.07749380      2.87488000       7
H               1.84190000      3.68962000     -6.54496000       1
H               1.34343000      7.51429000     -1.26400000       1
H               3.67877000     -6.84923000     -0.03542420       1
H               1.67549000      2.96301000      6.99123000       1
H               6.66810000      4.12554000     -0.00086083       1
H               5.67017000     -5.44528000      0.02409780       1
I              -5.41691000      4.40272000      3.65789000      53
H              -3.75326000     -4.61766000      5.22620000       1
P               5.48027000      2.35986000      5.23185000      15
I              -1.64545000      7.61212000      1.56037000      53
H               6.29556000     -2.86323000      3.92774000       1
H               5.66877000      5.61728000      0.02409780       1
P               0.87906100     -1.37538000      7.86993000      15
P              -3.41011000     -5.07384000     -5.22822000      15
P               1.01868000     -1.40852000     -7.85982000      15
C               0.66063600      7.75321000     -2.08111000       6
I               7.98476000      0.17245500     -1.15287000      53
H              -6.75302000     -2.86641000     -3.43814000       1
H              -7.18504000      0.06076210      3.91510000       1
N               1.32113000      3.94038000      7.08842000       7
I               7.31531000     -3.45043000      1.56037000      53
I               3.61143000     -3.03098000     -6.80217000      53
H              -8.18579000      0.84264700      1.19932000       1
I              -0.88340800     -7.12161000      4.23706000      53
I              -1.61237000     -7.26004000     -3.79733000      53
I               2.82559000     -6.65260000     -4.18424000      53
I               3.54385000     -6.65983000      3.65789000      53
C               5.16262000     -3.58195000      5.56933000       6
H              -3.70407000     -3.53715000      6.65654000       1
N               1.38871000      7.56923000     -3.37165000       7
H               6.40331000      1.78045000     -5.16881000       1
N               6.37696000      0.78995300     -5.49101000       7
H               6.33573000     -1.84840000      5.29126000       1
N              -4.36362000     -7.24465000      0.24865700       7
H              -7.61453000     -3.54826000     -1.26400000       1
N               6.30938000     -2.83890000      4.96906000       7
H              -4.35485000     -7.23108000      1.28932000       1
N               4.59574000     -7.24465000      0.24865700       7
H               1.90358000      2.72696000     -7.94208000       1
I              -6.13517000      4.40996000     -4.18424000      53
H               2.13736000      4.56728000      7.02192000       1
N               1.86815000      3.70635000     -7.58519000       7
H              -5.28059000     -6.84923000     -0.03542420       1
C              -8.29956000      0.84065200      2.28519000       6
P              -3.41151000      5.98871000     -5.22822000      15
C               5.73573000     -6.47583000     -0.33026900       6
H               4.60450000     -7.23108000      1.28932000       1
H               5.20610000     -4.61766000      5.22620000       1
P              -8.01272000      2.25348000     -2.59014000      15
H               5.65432000     -6.50880000     -1.41851000       1
I               2.83607000      8.18384000      1.19053000      53
H               0.75922000      7.73476000     -4.18731000       1
H              -0.20516400      3.97852000     -7.88775000       1
I              -6.20275000      0.78110100      6.27583000      53
H              -8.26813000      1.86107000      2.67231000       1
H               7.28926000      0.38183700     -5.20931000       1
N              -7.56925000     -3.49332000     -3.37165000       7
I              -7.95568000      4.23510000     -0.04819900      53
I              -3.64895000      7.81716000     -2.62621000      53
H               0.33371900      8.79193000     -2.01631000       1
I              -1.57647000      0.17842100     -8.89970000      53
H               8.68662000      0.34966500      2.57232000       1
H              -0.26651300      3.45032000      8.39108000       1
I               7.34558000      3.80251000     -3.79733000      53
H              -3.75466000      6.44489000      5.22620000       1
H              -8.62424000     -2.27062000     -2.01631000       1
H               6.36314000      0.76562400     -6.53233000       1
H               2.20494000      8.19614000     -3.43814000       1
P               5.54925000     -5.07384000     -5.22822000      15
I              -5.34793000     -3.03098000     -6.80217000      53
H              -7.21489000     -4.47068000     -3.46883000       1
C              -8.29732000     -3.30934000     -2.08111000       6
H               5.25528000     -3.53715000      6.65654000       1
P               0.94803900     -8.80907000     -2.59014000      15
H               2.78842000      4.11601000     -7.83609000       1
H              -4.36696000     -8.23282000     -0.08257690       1
I              -5.41551000     -6.65983000      3.65789000      53
C               0.72737300      4.46951000     -8.17488000       6
C               0.59305700      4.12436000      8.37896000       6
H               0.69304000     -6.95664000      6.27275000       1
H               4.59240000     -8.23282000     -0.08257690       1
H              -2.66520000      8.19932000      3.92774000       1
I               0.93532000      7.83667000      5.25223000      53
H               7.22168000     -3.24702000      5.25075000       1
I              -7.95506000      0.40297900     -5.20784000      53
H               0.75881200      5.48992000     -7.78776000       1
I              -3.50953000      4.16274000     -7.85956000      53
H              -1.73907000      7.81553000      5.25075000       1
H              -9.23210000      0.34966500      2.57232000       1
H               0.76021100     -5.57263000     -7.78776000       1
H               0.69263200     -9.20148000      2.67231000       1
H               6.66950000     -6.93701000     -0.00086083       1
I              -3.71653000      4.18831000      7.83386000      53
P               5.54785000      5.98871000     -5.22822000      15
H              -3.37401000      0.92489100      9.04156000       1
I               2.90505000      0.75013900     -9.26954000      53
H               9.29448000     -2.27062000     -2.01631000       1
H              -8.19874000     -3.32779000     -4.18731000       1
H               5.20470000      6.44489000      5.22620000       1
H               2.13876000     -6.49527000      7.02192000       1
I               5.31041000      7.81716000     -2.62621000      53
P              -8.00825000     -5.03737000      2.60025000      15
I              -0.81722800      7.56979000     -6.22301000      53
H               9.73292000      0.84264700      1.19932000       1
H               8.76182000     -3.98338000     -2.06899000       1
I               7.27801000      0.17365800      6.66273000      53
H               0.26614000      5.16308000      8.44376000       1
C               9.61915000      0.84065200      2.28519000       6
I               8.07455000      3.94094000      4.23706000      53
N              -2.65138000      8.22365000      4.96906000       7
I              -6.13377000     -6.65260000     -4.18424000      53
I              -1.04218000     -3.45640000      9.30720000      53
I              -9.93396000      0.17245500     -1.15287000      53
H               1.84329000     -7.37293000     -6.54496000       1
