200
cutoff_factor=1.20000000 nneightol=1.20000000 Lattice="28.62048000       0.00000000       0.00000000       0.00000000      28.80488000       0.00000000       0.00000000       0.00000000      29.01663000" Properties=species:S:1:pos:R:3:Z:I:1
I              -0.99856100      0.15343600     -0.00086542      53
H               0.82507700     -2.35723000     -0.09707150       1
H               2.18401000     -1.50160000     -0.89880000       1
C               1.89108000     -2.38853000     -0.33237700       6
H               2.47834000     -1.54957000      1.50945000       1
P              -0.91613100      0.78757900      3.11169000      15
P              -1.00145000      0.72286400     -3.11869000      15
N               2.65717000     -2.40523000      0.94935800       7
H              -2.76138000     -2.44928000      0.75051800       1
I               2.28014000      0.62384400      3.21681000      53
H               2.25940000      3.17952000      0.93896800       1
H               2.13192000     -3.29616000     -0.89025100       1
I               2.19616000      0.81182000     -3.28429000      53
H               1.28404000      3.74836000     -1.24294000       1
H               2.41564000     -3.24096000      1.51909000       1
H               3.67515000     -2.44928000      0.75051800       1
H              -3.95818000     -1.54957000      1.50945000       1
I              -0.99370900     -2.36555000      3.72969000      53
N              -3.77936000     -2.40523000      0.94935800       7
H              -4.25251000     -1.50160000     -0.89880000       1
I              -1.06531000     -2.36529000     -3.81025000      53
I              -1.04931000      3.89493000     -2.55498000      53
N               2.17377000      4.17763000     -0.91769500       7
C               2.27638000      4.20691000      0.56828400       6
I              -0.92218200      3.93451000      2.66846000      53
H               2.98605000      3.68806000     -1.34223000       1
I              -1.06260000     -4.91217000     -0.00272190      53
H               1.42744000      4.77081000      0.95996500       1
C              -4.54544000     -2.38853000     -0.33237700       6
H              -3.45047000      3.68806000     -1.34223000       1
I              -4.15639000      0.62384400      3.21681000      53
H              -4.17713000      3.17952000      0.93896800       1
H              -4.02088000     -3.24096000      1.51909000       1
I              -4.24037000      0.81182000     -3.28429000      53
I               5.43796000      0.15343600     -0.00086542      53
H              -4.30460000     -3.29616000     -0.89025100       1
H               2.18822000      5.14039000     -1.31435000       1
H               3.21434000      4.69688000      0.83765300       1
H              -3.22219000      4.69688000      0.83765300       1
C              -4.16014000      4.20691000      0.56828400       6
H               2.30225000     -0.93227000     -5.42461000       1
N              -4.26276000      4.17763000     -0.91769500       7
H              -5.61145000     -2.35723000     -0.09707150       1
H               2.57987000     -0.92855600      5.51637000       1
P               5.43508000      0.72286400     -3.11869000      15
P               5.52039000      0.78757900      3.11169000      15
P              -1.07356000     -5.45568000     -3.16056000      15
P              -0.99438100     -5.50581000      3.16722000      15
H              -5.15248000      3.74836000     -1.24294000       1
I              -0.98527500      1.36114000      6.29877000      53
I              -1.09234000      1.32857000     -6.32473000      53
H               2.50270000      3.99274000      4.58471000       1
H               1.38872000      3.07313000      5.64793000       1
H               2.01143000     -3.34219000     -5.36447000       1
I               2.21396000     -5.44087000      3.09230000      53
H               0.88313000     -2.53212000      6.21577000       1
I               2.13787000     -5.63091000     -3.11359000      53
H              -3.85666000     -0.92855600      5.51637000       1
H              -4.24830000      5.14039000     -1.31435000       1
H               2.30458000     -3.33860000      5.47409000       1
H               2.51628000      3.89346000     -5.06007000       1
H              -4.13427000     -0.93227000     -5.42461000       1
N               2.59756000     -1.51034000     -6.23543000       7
H               0.77606600     -2.56469000     -6.40773000       1
H              -2.82501000     -1.70581000     -6.11900000       1
H              -5.00909000      4.77081000      0.95996500       1
I               5.37121000     -2.36529000     -3.81025000      53
I               5.44282000     -2.36555000      3.72969000      53
N               2.70462000     -1.47778000      6.38807000       7
C               1.99972000      3.97279000      5.55423000       6
I               5.38721000      3.89493000     -2.55498000      53
C               1.83745000     -2.79555000     -6.29394000       6
C               1.94452000     -2.76299000      6.32957000       6
H              -3.93383000      3.99274000      4.58471000       1
H              -2.71794000     -1.67325000      6.50451000       1
I               5.37392000     -4.91217000     -0.00272190      53
I               5.51434000      3.93451000      2.66846000      53
H               3.61152000     -1.70581000     -6.11900000       1
H              -2.87123000      3.09477000     -6.10684000       1
I              -7.43509000      0.15343600     -0.00086542      53
N              -3.83897000     -1.51034000     -6.23543000       7
H              -3.92024000      3.89346000     -5.06007000       1
N              -3.73190000     -1.47778000      6.38807000       7
I              -4.22257000     -5.44087000      3.09230000      53
H               2.47280000     -0.96111800     -7.10714000       1
H               1.38873000      4.86759000      5.68410000       1
H              -4.13194000     -3.33860000      5.47409000       1
H               7.26160000     -2.35723000     -0.09707150       1
H               2.40932000     -0.89970800      7.19890000       1
H               3.71858000     -1.67325000      6.50451000       1
H              -4.42509000     -3.34219000     -5.36447000       1
H               1.28165000      3.04057000     -6.97558000       1
H               3.56530000      3.09477000     -6.10684000       1
I              -4.29865000     -5.63091000     -3.11359000      53
H              -2.76416000      3.12733000      6.51667000       1
N               2.93240000      3.91945000     -5.99914000       7
I              -1.00084000      7.70051000     -0.00272190      53
P              -0.93261500      7.10687000      3.16722000      15
H               2.12646000     -7.47229000     -1.31435000       1
P              -1.01179000      7.15701000     -3.16056000      15
I               2.19964000      6.98177000     -3.11359000      53
N              -3.50413000      3.91945000     -5.99914000       7
H               1.36567000     -7.84187000      0.95996500       1
P              -7.35266000      0.78757900      3.11169000      15
P              -7.43797000      0.72286400     -3.11869000      15
H               3.67236000      3.12733000      6.51667000       1
I               2.27572000      7.17181000      3.09230000      53
C              -4.43681000      3.97279000      5.55423000       6
H              -5.04781000      3.07313000      5.64793000       1
H              -3.96372000     -0.96111800     -7.10714000       1
H               2.19752000     -3.37117000     -7.14942000       1
H              -2.88448000      4.75918000     -6.06964000       1
C              -4.49201000     -2.76299000      6.32957000       6
H               2.11849000     -3.30963000      7.25904000       1
P               5.36297000     -5.45568000     -3.16056000      15
C              -4.59907000     -2.79555000     -6.29394000       6
N               3.03946000      3.95201000      6.62437000       7
H              -4.02721000     -0.89970800      7.19890000       1
C               1.89265000      3.94023000     -7.06928000       6
P               5.44214000     -5.50581000      3.16722000      15
I               5.34419000      1.32857000     -6.32473000      53
N              -3.39706000      3.95201000      6.62437000       7
I               5.45125000      1.36114000      6.29877000      53
H               3.55204000      4.75918000     -6.06964000       1
H               1.28167000      4.83503000     -6.93941000       1
H               3.15257000     -7.91580000      0.83765300       1
H              -2.77742000      4.79174000      6.55387000       1
H              -3.28395000     -7.91580000      0.83765300       1
I              -7.43023000     -2.36555000      3.72969000      53
C               8.32761000     -2.38853000     -0.33237700       6
H               7.72057000      3.74836000     -1.24294000       1
C               2.21462000     -8.40577000      0.56828400       6
H              -5.55340000     -2.53212000      6.21577000       1
H              -4.31007000     -7.47229000     -1.31435000       1
I              -7.50184000     -2.36529000     -3.81025000      53
I              -4.23689000      6.98177000     -3.11359000      53
N               2.11200000     -8.43505000     -0.91769500       7
I              -7.35871000      3.93451000      2.66846000      53
H               8.62054000     -1.50160000     -0.89880000       1
I              -7.48584000      3.89493000     -2.55498000      53
I              -1.03583000     -6.09847000      6.32326000      53
I              -4.16080000      7.17181000      3.09230000      53
I              -1.14289000     -6.13104000     -6.30024000      53
H               3.65911000      4.79174000      6.55387000       1
H               2.62334000      3.92602000      7.56344000       1
H              -5.66046000     -2.56469000     -6.40773000       1
I              -7.49913000     -4.91217000     -0.00272190      53
H              -4.23901000     -3.37117000     -7.14942000       1
H              -5.04779000      4.86759000      5.68410000       1
H               1.22228000     -8.86433000     -1.24294000       1
H              -4.31803000     -3.30963000      7.25904000       1
I              -1.08113000      6.48165000     -6.30024000      53
I              -0.97406400      6.51421000      6.32326000      53
I              -0.98394700     -8.67817000      2.66846000      53
I              -1.11108000     -8.71775000     -2.55498000      53
I              -0.95824700     -2.33272000      8.81326000      53
H               8.91487000     -1.54957000      1.50945000       1
H              -5.15487000      3.04057000     -6.97558000       1
H               8.56845000     -3.29616000     -0.89025100       1
H               7.86396000      4.77081000      0.95996500       1
I               8.63268000      0.81182000     -3.28429000      53
H               2.39563000      3.96017000     -8.03880000       1
I              -1.10077000     -2.39811000     -8.89382000      53
C              -4.54387000      3.94023000     -7.06928000       6
H               8.69592000      3.17952000      0.93896800       1
I               8.71667000      0.62384400      3.21681000      53
H              -3.81318000      3.92602000      7.56344000       1
H              -5.07085000     -7.84187000      0.95996500       1
C              -4.22191000     -8.40577000      0.56828400       6
I               5.43569000      7.70051000     -0.00272190      53
N               9.09369000     -2.40523000      0.94935800       7
H               2.92429000     -8.92462000     -1.34223000       1
P               5.42473000      7.15701000     -3.16056000      15
N              -4.32452000     -8.43505000     -0.91769500       7
P               5.50391000      7.10687000      3.16722000      15
H              -9.19790000     -2.44928000      0.75051800       1
H               8.85217000     -3.24096000      1.51909000       1
P              -0.89438300      0.75542600      9.50482000      15
P              -1.02320000      0.75501700     -9.51181000      15
H               2.19369000      9.31652000     -0.89025100       1
N               8.61029000      4.17763000     -0.91769500       7
I               2.30322000      0.84438200      9.33922000      53
I               2.17308000      0.59128200     -9.40670000      53
H              -3.51224000     -8.92462000     -1.34223000       1
C               8.71291000      4.20691000      0.56828400       6
H               1.32697000     -7.74509000      5.68410000       1
H               2.19763000     -9.43316000      0.93896800       1
P              -7.43091000     -5.50581000      3.16722000      15
P              -7.51008000     -5.45568000     -3.16056000      15
H               2.47741000      9.37172000      1.51909000       1
I              -7.42180000      1.36114000      6.29877000      53
H              -4.04089000      3.96017000     -8.03880000       1
H              -5.15486000      4.83503000     -6.93941000       1
I              -7.52886000      1.32857000     -6.32473000      53
H               7.31966000     -2.53212000      6.21577000       1
H               7.21259000     -2.56469000     -6.40773000       1
H               2.44093000     -8.61994000      4.58471000       1
H               8.62475000      5.14039000     -1.31435000       1
H               7.82524000      3.07313000      5.64793000       1
H               9.42258000      3.68806000     -1.34223000       1
