200
cutoff_factor=1.20000000 nneightol=1.20000000 Lattice="29.15375000       0.00000000       0.00000000       0.00000000      28.10567000       0.00000000       0.00000000       0.00000000      28.52070000" Properties=species:S:1:pos:R:3:Z:I:1
H               1.23946000      0.76962700      1.26814000       1
I              -1.44729000      0.77173300     -1.45166000      53
H              -0.15510900      0.84788200      2.23105000       1
N               0.88234100      0.88206100      2.23914000       7
H               1.25623000     -2.23030000     -1.55653000       1
I               2.91399000      0.22272500     -0.85491300      53
H               1.10747000     -1.16685000      2.68950000       1
I              -0.68013200     -3.01181000      1.02035000      53
H               1.19978000      1.80021000      2.60951000       1
C               1.43450000     -0.20753300      3.09548000       6
P              -3.26532000     -1.43203000      0.03754680      15
P               1.11890000      2.25245000     -2.59625000      15
C               0.90509300     -2.78850000     -2.42689000       6
H              -0.15131000     -3.04289000     -2.31478000       1
H               2.52467000     -0.13975700      3.08138000       1
I              -3.01483000      0.49571000      2.59965000      53
H               1.06563000     -2.21396000     -3.34160000       1
H               1.05747000     -0.07379480      4.11167000       1
I               1.35445000      4.26488000     -0.04766810      53
H              -1.95752000      4.02273000     -0.36031600       1
H              -3.59535000      2.68494000      0.83368700       1
H              -3.02629000     -0.29770900     -3.76875000       1
N               1.68781000     -4.05576000     -2.52166000       7
H              -3.36657000      3.61343000     -1.39053000       1
H               1.56535000     -4.63597000     -1.66777000       1
C              -3.02567000      4.18272000     -0.52343500       6
I               0.97897800      0.33838200     -5.15909000      53
N              -3.76538000      3.69706000      0.68069700       7
H               2.70297000     -3.86252000     -2.64847000       1
I               3.75636000     -3.43857000      1.82639000      53
I              -3.54026000     -3.26085000     -2.61594000      53
H               4.00757000      3.85078000      0.57800300       1
H              -3.42915000      4.18601000      1.53541000       1
P               5.53031000     -1.43203000      0.03754680      15
C              -3.58462000      0.18964100     -4.57024000       6
P               1.12771000     -5.06808000      2.65595000      15
H               1.34761000     -4.63529000     -3.31621000       1
H              -3.81053000      1.22197000     -4.30324000       1
H               5.20028000      2.68494000      0.83368700       1
H              -1.96667000     -2.88955000      4.80715000       1
I              -5.88165000      0.22272500     -0.85491300      53
H              -3.36954000     -3.06547000      3.84895000       1
H              -1.86383000      0.73174400     -5.65865000       1
I              -1.69720000      4.50047000      3.61286000      53
I               2.73274000      3.62737000      4.01646000      53
I              -0.66491600      4.54675000     -3.98455000      53
H              -4.78806000      3.85078000      0.57800300       1
H              -3.23746000      5.24622000     -0.65457000       1
N               5.03025000      3.69706000      0.68069700       7
I               0.87614100     -3.28291000      5.30671000      53
I               5.78080000      0.49571000      2.59965000      53
I              -5.03928000     -3.43857000      1.82639000      53
N              -2.73666000      0.19502700     -5.79640000       7
H               4.29333000     -0.36236900     -4.78550000       1
N              -2.83950000     -3.42626000      4.66939000       7
I               3.67847000      3.69100000     -3.83637000      53
H              -2.45151000     -0.77755400     -6.04539000       1
H              -4.50230000     -0.36236900     -4.78550000       1
I              -0.76775400      0.92546400      6.48124000      53
P              -3.37025000      2.24645000      5.24955000      15
P               1.02217000      5.99184000      2.65595000      15
H              -3.13192000     -5.81370000     -0.65457000       1
H               5.42907000      3.61343000     -1.39053000       1
H               4.98511000      1.22197000     -4.30324000       1
I               5.25537000     -3.26085000     -2.61594000      53
H              -2.55434000     -4.39884000      4.42040000       1
H               1.45980000      6.42395000     -1.66777000       1
H               5.76934000     -0.29770900     -3.76875000       1
C               5.21102000      0.18964100     -4.57024000       6
I               1.46000000     -6.79504000     -0.04766810      53
H               5.36648000      4.18601000      1.53541000       1
H              -6.27096000     -0.13975700      3.08138000       1
C               5.76996000      4.18272000     -0.52343500       6
H              -1.85197000     -7.03719000     -0.36031600       1
H               5.42610000     -3.06547000      3.84895000       1
H               1.24207000      6.42463000     -3.31621000       1
H               1.16030000      3.54750000     -6.35412000       1
I              -5.11716000      3.69100000     -3.83637000      53
H              -3.26670000      0.55582200     -6.61684000       1
C              -2.92012000     -6.87720000     -0.52343500       6
I               7.34835000      0.77173300     -1.45166000      53
I               3.57563000      0.06971310      6.62942000      53
I              -1.48881000     -2.93816000     -6.85293000      53
N               1.58226000      7.00416000     -2.52166000       7
I              -0.55936800     -6.51317000     -3.98455000      53
I              -1.59165000     -6.55945000      3.61286000      53
H               5.55817000      5.24622000     -0.65457000       1
H              -3.91336000     -2.39932000      6.16255000       1
H              -6.09267000     -3.86252000     -2.64847000       1
H              -7.55617000      0.76962700      1.26814000       1
C              -3.68746000     -3.43165000      5.89555000       6
H               1.13923000      2.80334000      7.14958000       1
H              -3.32360000     -6.87392000      1.53541000       1
P               5.42539000      2.24645000      5.24955000      15
H               6.83811000      4.02273000     -0.36031600       1
C              -7.36114000     -0.20753300      3.09548000       6
P              -3.16186000     -5.19218000     -5.21624000      15
H              -7.53940000     -2.23030000     -1.55653000       1
P               1.23055000     -1.44679000     -7.80984000      15
I               2.94112000     -3.81126000     -6.44934000      53
P               1.01606000     -1.36884000      7.86954000      15
H               2.59742000      7.19741000     -2.64847000       1
H               4.19050000     -3.98366000      5.68029000       1
I              -6.06290000      3.62737000      4.01646000      53
H               5.66372000     -5.81370000     -0.65457000       1
I              -0.78568000      8.04811000      1.02035000      53
H               4.88227000     -2.39932000      6.16255000       1
H              -7.68817000     -1.16685000      2.68950000       1
H              -7.59586000      1.80021000      2.60951000       1
H               1.21030000      2.45444000     -7.77629000       1
H              -3.26102000     -7.44649000     -1.39053000       1
N              -3.65984000     -7.36286000      0.68069700       7
C               1.53734000      3.41376000     -7.37031000       6
N              -7.91329000      0.88206100      2.23914000       7
N               5.95613000     -3.42626000      4.66939000       7
H               4.11312000     -7.20914000      0.57800300       1
H              -4.60514000     -3.98366000      5.68029000       1
H              -0.25685800      8.01703000     -2.31478000       1
H              -3.12913000     -3.91900000      6.69704000       1
N               6.05897000      0.19502700     -5.79640000       7
P              -7.67674000      2.25245000     -2.59625000      15
H              -2.65989000      6.66108000      4.42040000       1
I              -5.22000000      0.06971310      6.62942000      53
P              -3.26741000      5.86774000     -5.21624000      15
C               5.10818000     -3.43165000      5.89555000       6
N              -7.10782000     -4.05576000     -2.52166000       7
H               2.62751000      3.48153000     -7.38442000       1
I              -7.44118000      4.26488000     -0.04766810      53
H              -4.68252000     -7.20914000      0.57800300       1
H               5.52893000      0.55582200     -6.61684000       1
I               3.65081000      7.62135000      1.82639000      53
C               0.79954500      8.27142000     -2.42689000       6
H              -7.73001000     -2.21396000     -3.34160000       1
C              -7.89054000     -2.78850000     -2.42689000       6
I               8.11550000     -3.01181000      1.02035000      53
H              -7.23029000     -4.63597000     -1.66777000       1
N               1.47942000      3.38287000      7.94413000       7
H              -7.73817000     -0.07379480      4.11167000       1
H               6.34413000     -0.77755400     -6.04539000       1
H               6.24129000     -4.39884000      4.42040000       1
H               6.82897000     -2.88955000      4.80715000       1
H               0.85724000      5.22467000      7.12419000       1
I               2.83829000     -7.43255000      4.01646000      53
H               5.47203000     -6.87392000      1.53541000       1
H               2.49458000      3.57612000      7.81732000       1
H               8.64053000      0.84788200      2.23105000       1
H               6.93181000      0.73174400     -5.65865000       1
I              -3.64581000      7.79907000     -2.61594000      53
N               5.13580000     -7.36286000      0.68069700       7
H               1.15068000      8.82962000     -1.55653000       1
C               5.87551000     -6.87720000     -0.52343500       6
H              -3.48980000     -8.37498000      0.83368700       1
I               3.78402000     -7.36892000     -3.83637000      53
I               7.09844000      4.50047000      3.61286000      53
H               0.96278800     -5.83525000      7.12419000       1
P               1.22444000     -8.80747000     -2.59625000      15
H              -8.95074000      0.84788200      2.23105000       1
H              -0.35969500      4.39574000      8.15102000       1
P               5.63377000     -5.19218000     -5.21624000      15
C               0.69670800      4.65013000      8.03891000       6
H               1.35696000      2.80266000      8.79803000       1
I              -2.91199000      4.11700000     -7.86614000      53
H              -0.05227110      4.46917000     -8.23474000       1
I              -7.81666000      0.33838200     -5.15909000      53
I              -5.14482000      7.62135000      1.82639000      53
H              -7.44802000     -4.63529000     -3.31621000       1
H               5.53462000     -7.44649000     -1.39053000       1
N              -2.94505000      7.63366000      4.66939000       7
N               0.98517900      4.50335000     -8.22666000       7
I               0.77059300      7.77701000      5.30671000      53
H               8.64432000     -3.04289000     -2.31478000       1
I               3.85920000      0.18271800     -8.63941000      53
I              -0.57729400      0.60948200     -9.44544000      53
H               0.96007800      8.84596000     -3.34160000       1
I              -5.85451000     -3.81126000     -6.44934000      53
H              -3.47509000      7.99445000      3.84895000       1
P              -7.66792000     -5.06808000      2.65595000      15
I              -1.55013000     -2.84956000      9.01413000      53
P               5.52822000      5.86774000     -5.21624000      15
H               5.66651000     -3.91900000      6.69704000       1
H               1.30261000      5.42150000     -7.85628000       1
I              -3.74864000      4.17778000      7.84985000      53
I              -5.01162000     -7.36892000     -3.83637000      53
H              -2.07221000      8.17038000      4.80715000       1
I               5.14983000      7.79907000     -2.61594000      53
H               1.30532000     -9.25971000      2.60951000       1
H              -3.46940000     -0.00785947      9.07526000       1
H              -8.94694000     -3.04289000     -2.31478000       1
H               1.40816000     -5.63842000     -7.85628000       1
H              -6.19821000      7.19741000     -2.64847000       1
H              -7.33583000      6.42395000     -1.66777000       1
H               6.94366000     -7.03719000     -0.36031600       1
H               1.26585000     -7.51243000     -6.35412000       1
H               5.30583000     -8.37498000      0.83368700       1
H               4.08495000      7.07626000      5.68029000       1
I              -4.93644000      0.18271800     -8.63941000      53
N               9.67798000      0.88206100      2.23914000       7
I              -9.47577000     -3.01181000      1.02035000      53
I              -7.33563000     -6.79504000     -0.04766810      53
H              -3.22077000     -3.25263000     -8.93038000       1
