200
cutoff_factor=1.20000000 nneightol=1.20000000 Lattice="28.98347000       0.00000000       0.00000000       0.00000000      28.76389000       0.00000000       0.00000000       0.00000000      29.27129000" Properties=species:S:1:pos:R:3:Z:I:1
I               0.15000100     -0.34653800     -0.07822640      53
H              -0.92007700      0.48644200     -2.35830000       1
P               2.74143000      1.56886000      0.03885980      15
H              -0.79280500      0.77372000      3.02029000       1
H              -2.30628000      1.06415000      2.10006000       1
H              -1.02149000      2.31608000      2.13149000       1
P              -1.77120000     -2.90356000      0.02702580      15
C              -1.51754000      1.52537000      2.69895000       6
N              -0.90714600      1.11379000     -3.18848000       7
H               0.02213600      1.58014000     -3.17797000       1
H              -1.92321000      2.69488000     -2.23970000       1
H               1.72543000     -1.83553000     -3.24898000       1
H              -0.92783300      0.53960200     -4.05666000       1
I               0.79133500      4.15552000      0.05141050      53
C              -2.02037000      2.10454000     -3.15275000       6
H               2.69885000     -2.94352000      1.89171000       1
H               1.44555000     -2.76894000      3.16465000       1
I              -4.38057000     -1.02300000     -0.07636990      53
I               2.63025000      1.73639000     -3.21592000      53
I               2.80755000      1.51955000      3.22475000      53
H               2.22806000     -3.65510000     -1.70287000       1
H              -2.96922000      1.56341000     -3.16213000       1
H               3.48541000     -2.55203000     -1.74541000       1
I              -1.76044000     -2.90244000     -3.21377000      53
I               4.57613000     -1.02300000     -0.07636990      53
I              -1.95863000     -2.84272000      3.23007000      53
H               3.20501000     -1.11639000      3.42557000       1
I               0.80233000     -4.80994000      0.05141050      53
C               2.48352000     -3.03996000      2.95830000       6
N              -2.13849000      2.13262000      3.91190000       7
N               2.97257000     -3.25992000     -2.31843000       7
C               2.39366000     -2.64625000     -3.54811000       6
I              -3.70777000      3.51631000     -0.01236030      53
H              -1.93584000      2.74800000     -4.03060000       1
H              -1.41660000      2.57709000      4.52258000       1
H              -2.61244000      1.41572000      4.50347000       1
H              -2.82708000      2.85703000      3.65633000       1
N               3.37331000     -2.10437000      3.70495000       7
H               1.84063000     -3.41701000     -4.08702000       1
H               3.21255000     -2.26215000     -4.15864000       1
H               2.68769000     -4.05766000      3.29885000       1
H               3.62477000     -4.02716000     -2.53956000       1
H               2.21707000      5.31035000     -1.70287000       1
H               4.37797000     -2.32106000      3.54339000       1
H               3.18477000     -2.16487000      4.72399000       1
H              -4.57873000     -2.32106000      3.54339000       1
H              -5.47129000     -2.55203000     -1.74541000       1
I               5.24893000      3.51631000     -0.01236030      53
P              -1.78219000      6.06189000      0.02702580      15
I               0.03136380     -0.23742600     -6.36679000      53
P              -6.21527000      1.56886000      0.03885980      15
H               2.67670000      4.90780000      3.29885000       1
I               0.97822700     -0.98926500      6.39462000      53
I              -3.69677000     -5.44915000     -0.01236030      53
H               3.61378000      4.93829000     -2.53956000       1
H              -5.75169000     -1.11639000      3.42557000       1
N               2.96157000      5.70553000     -2.31843000       7
H               2.68786000      6.02193000      1.89171000       1
H              -1.91222000     -6.27058000     -2.23970000       1
H               5.98748000      1.56341000     -3.16213000       1
N              -5.58339000     -2.10437000      3.70495000       7
H               6.65042000      1.06415000      2.10006000       1
H              -1.01050000     -6.64938000      2.13149000       1
C               2.47252000      5.92549000      2.95830000       6
I              -1.77144000      6.06301000     -3.21377000      53
H               1.43456000      6.19651000      3.16465000       1
I              -6.14915000      1.51955000      3.22475000      53
H               1.82964000      5.54845000     -4.08702000       1
H              -5.33192000     -4.02716000     -2.53956000       1
H              -6.25784000     -2.94352000      1.89171000       1
P              -1.64566000     -2.72633000      6.43977000      15
P               2.77000000      1.65474000     -6.41888000      15
P               2.67195000      1.71111000      6.45977000      15
I              -1.96963000      6.12273000      3.23007000      53
N              -5.98413000     -3.25992000     -2.31843000       7
I               0.05725720      3.52708000      6.33070000      53
P              -1.85809000     -2.87328000     -6.39888000      15
I              -3.54509000     -0.11018100      6.34241000      53
I              -6.32644000      1.73639000     -3.21592000      53
H              -5.74414000     -2.26215000     -4.15864000       1
H               3.47442000      6.41343000     -1.74541000       1
I               5.25992000     -5.44915000     -0.01236030      53
C               2.38267000      6.31920000     -3.54811000       6
H              -1.92484000     -6.21745000     -4.03060000       1
H              -2.81608000     -6.10843000      3.65633000       1
H               6.12962000      2.85703000      3.65633000       1
H              -5.34292000      4.93829000     -2.53956000       1
C              -6.47318000     -3.03996000      2.95830000       6
P               7.18550000     -2.90356000      0.02702580      15
H              -5.77192000     -2.16487000      4.72399000       1
C              -2.00938000     -6.86091000     -3.15275000       6
I               0.87056800      4.27089000     -6.51624000      53
H              -6.72863000     -3.65510000     -1.70287000       1
H               7.03349000      2.69488000     -2.23970000       1
P               2.75242000     -7.39660000      0.03885980      15
C               6.93633000      2.10454000     -3.15275000       6
H               6.34426000      1.41572000      4.50347000       1
C              -6.56304000     -2.64625000     -3.54811000       6
H              -1.40560000     -6.38836000      4.52258000       1
I              -4.47279000     -1.05731000     -6.52795000      53
I               4.48391000     -1.05731000     -6.52795000      53
H               1.71444000      7.12992000     -3.24898000       1
H               0.03313070     -7.38532000     -3.17797000       1
C              -1.50654000     -7.44008000      2.69895000       6
C               7.43916000      1.52537000      2.69895000       6
I               0.88156200     -4.69457000     -6.51624000      53
I              -3.56281000      3.39180000     -6.46402000      53
H              -7.23126000     -1.83553000     -3.24898000       1
N               6.81821000      2.13262000      3.91190000       7
N              -2.12749000     -6.83284000      3.91190000       7
H              -6.26900000     -4.05766000      3.29885000       1
I               6.99806000     -2.84272000      3.23007000      53
I               5.41161000     -0.11018100      6.34241000      53
I               2.64125000     -7.22906000     -3.21592000      53
I               0.06825190     -5.43838000      6.33070000      53
H               8.03662000      0.48644200     -2.35830000       1
I               7.19625000     -2.90244000     -3.21377000      53
N               3.36231000      6.86108000      3.70495000       7
H              -2.29528000     -7.90130000      2.10006000       1
H               3.20156000      6.70331000     -4.15864000       1
N              -0.89615100     -7.85167000     -3.18848000       7
H               7.93520000      2.31608000      2.13149000       1
H              -1.35627000      2.21620000     -8.13466000       1
H               7.02086000      2.74800000     -4.03060000       1
H              -2.95822000     -7.40204000     -3.16213000       1
I               2.81854000     -7.44590000      3.22475000      53
N              -5.99512000      5.70553000     -2.31843000       7
H              -7.51115000     -2.76894000      3.16465000       1
H              -5.48228000      6.41343000     -1.74541000       1
I               0.13900600      8.61892000     -0.07822640      53
H              -6.28000000      4.90780000      3.29885000       1
H               4.36697000      6.64439000      3.54339000       1
N               8.04955000      1.11379000     -3.18848000       7
H               8.16389000      0.77372000      3.02029000       1
H              -6.73963000      5.31035000     -1.70287000       1
H              -0.78181000     -8.19173000      3.02029000       1
I              -8.80670000     -0.34653800     -0.07822640      53
H              -4.58972000      6.64439000      3.54339000       1
H              -0.90908200     -8.47901000     -2.35830000       1
H               3.17378000      6.80059000      4.72399000       1
H              -7.11607000     -3.41701000     -4.08702000       1
H              -6.26884000      6.02193000      1.89171000       1
I              -4.39529000      4.34696000      6.49185000      53
H               8.02886000      0.53960200     -4.05666000       1
P              -1.86909000      6.09217000     -6.39888000      15
I               4.56141000      4.34696000      6.49185000      53
P              -6.18670000      1.65474000     -6.41888000      15
I              -4.39156000      7.94245000     -0.07636990      53
I               5.39389000      3.39180000     -6.46402000      53
H              -1.21410000      2.32224000      8.70001000       1
H               3.01005000     -2.00730000     -8.33607000       1
I              -4.38430000     -4.61849000      6.49185000      53
I               9.10670000     -0.34653800     -0.07822640      53
H               1.81421000     -3.16867000     -8.35517000       1
P              -1.65666000      6.23912000      6.43977000      15
H               3.19401000      7.84907000      3.42557000       1
I               4.56514000      7.94245000     -0.07636990      53
I              -8.16536000      4.15552000      0.05141050      53
H               7.54010000      2.57709000      4.52258000       1
H              -2.60145000     -7.54974000      4.50347000       1
P              -6.28475000      1.71111000      6.45977000      15
I               4.57240000     -4.61849000      6.49185000      53
H              -2.58602000      1.16738000      8.77163000       1
I              -3.55182000     -5.57365000     -6.46402000      53
C              -6.48418000      5.92549000      2.95830000       6
I               0.16099500     -9.31199000     -0.07822640      53
H               2.60520000     -1.63307000      8.82805000       1
P               7.17450000      6.06189000      0.02702580      15
H              -0.91683800     -8.42585000     -4.05666000       1
H               6.14061000     -6.10843000      3.65633000       1
I              -8.15437000     -4.80994000      0.05141050      53
H               1.59958000     -1.72736000     -9.20232000       1
N              -1.16773000      2.27670000     -9.15370000       7
H              -0.16306900      2.06000000     -9.31526000       1
N               2.28816000     -2.45177000     -8.94675000       7
N              -5.59438000      6.86108000      3.70495000       7
H              -8.93456000      1.58014000     -3.17797000       1
P              -6.20428000     -7.39660000      0.03885980      15
H               8.97883000      1.58014000     -3.17797000       1
H               7.04448000     -6.27058000     -2.23970000       1
C              -2.03299000      1.93813000      9.31053000       6
H              -1.85335000      0.32341100     -9.55980000       1
H              -5.75514000      6.70331000     -4.15864000       1
C              -6.57403000      6.31920000     -3.54811000       6
H              -0.93107100      9.45190000     -2.35830000       1
I               6.98707000      6.12273000      3.23007000      53
H              -7.12706000      5.54845000     -4.08702000       1
I               7.18526000      6.06301000     -3.21377000      53
P               7.09860000     -2.87328000     -6.39888000      15
H               5.99847000     -7.40204000     -3.16213000       1
I               2.45702000      1.53835000     -9.62857000      53
H              -1.33603000      3.26468000     -9.43307000       1
P               2.68294000     -7.25435000      6.45977000      15
H              -5.78292000      6.80059000      4.72399000       1
I               5.40488000     -5.57365000     -6.46402000      53
P               7.31104000     -2.72633000      6.43977000      15
P               2.78099000     -7.31071000     -6.41888000      15
I              -6.31545000     -7.22906000     -3.21592000      53
I              -1.78540000     -2.64468000      9.64272000      53
H              -9.87677000      0.48644200     -2.35830000       1
