200
cutoff_factor=1.20000000 nneightol=1.20000000 Lattice="27.69837000       0.00000000       0.00000000       0.00000000      28.37725000       0.00000000       0.00000000       0.00000000      28.64695000" Properties=species:S:1:pos:R:3:Z:I:1
H               1.18719000      0.38188000     -0.09409370       1
H              -0.19351100      1.52763000     -0.03948080       1
C               0.86343500      1.40727000     -0.28639600       6
H               1.04398000      1.67689000     -1.32942000       1
I              -1.99226000     -0.19352900      1.75264000      53
N               1.65809000      2.32501000      0.58255100       7
H               1.53464000      2.09356000      1.58866000       1
I               1.20372000     -2.92749000      0.02802120      53
P              -2.03167000     -2.78987000     -0.09528210      15
H               2.66785000      2.24834000      0.35059800       1
I              -2.01087000     -1.05913000     -2.74504000      53
H               1.38429000      3.31628000      0.42681300       1
H               0.95061400     -1.96406000      3.24637000       1
H               1.33044000     -2.73827000     -3.11926000       1
I              -2.10848000      3.38331000     -1.79852000      53
H              -3.79316000      2.24834000      0.35059800       1
I               1.27968000      1.65985000      4.25161000      53
N               0.54872400     -2.54388000      3.99822000       7
I               4.46876000     -0.19352900      1.75264000      53
H              -0.09612740     -3.23820000      3.55839000       1
H              -0.05574080     -1.94927000      4.60692000       1
I               1.13635000      1.53237000     -4.63099000      53
P              -1.95982000      1.62722000      4.40734000      15
H               0.99514600     -1.15302000     -4.92149000       1
P              -2.09313000      1.65467000     -4.43771000      15
P               4.42934000     -2.78987000     -0.09528210      15
H              -0.31686000     -2.17413000     -4.77097000       1
H              -5.27382000      0.38188000     -0.09409370       1
I               4.45015000     -1.05913000     -2.74504000      53
I              -1.94507000      4.26481000      2.58075000      53
C               1.47471000     -3.05182000     -4.15542000       6
N              -4.80293000      2.32501000      0.58255100       7
N               0.68785500     -2.13921000     -5.03777000       7
H              -4.92638000      2.09356000      1.58866000       1
I              -1.94874000     -4.63611000      2.58075000      53
H               1.38062000     -5.58464000      0.42681300       1
C              -5.59758000      1.40727000     -0.28639600       6
I               4.35253000      3.38331000     -1.79852000      53
H              -5.41704000      1.67689000     -1.32942000       1
H               2.52826000     -2.97641000     -4.43248000       1
C               1.59754000     -3.22811000      4.80968000       6
I              -5.25729000     -2.92749000      0.02802120      53
H               1.11222000     -4.07191000     -4.30090000       1
H              -5.07673000      3.31628000      0.42681300       1
H               2.17143000     -3.88152000      4.15091000       1
I               1.20739000      5.97343000      0.02802120      53
I              -2.11216000     -5.51761000     -1.79852000      53
H               2.24160000     -2.46704000      5.25343000       1
P              -2.02800000      6.11105000     -0.09528210      15
P               4.36789000      1.65467000     -4.43771000      15
H               6.26751000      1.52763000     -0.03948080       1
P               4.50119000      1.62722000      4.40734000      15
I              -1.80871000     -1.01305000      6.18324000      53
H               0.77504800     -2.40640000     -6.03698000       1
H               1.11589000      4.82901000     -4.30090000       1
H              -5.13058000     -2.73827000     -3.11926000       1
H              -3.93276000     -2.97641000     -4.43248000       1
H              -0.09245610      5.66272000      3.55839000       1
H              -5.51040000     -1.96406000      3.24637000       1
I               4.51595000      4.26481000      2.58075000      53
N               1.65441000     -6.57591000      0.58255100       7
H              -6.65453000      1.52763000     -0.03948080       1
H               1.10413000     -3.81293000      5.58938000       1
H               2.17510000      5.01940000      4.15091000       1
I              -5.18133000      1.65985000      4.25161000      53
I               4.51228000     -4.63611000      2.58075000      53
H               1.33411000      6.16265000     -3.11926000       1
H              -4.28959000     -3.88152000      4.15091000       1
H               1.53097000     -6.80736000      1.58866000       1
C              -4.98630000     -3.05182000     -4.15542000       6
H               2.66418000     -6.65258000      0.35059800       1
H              -4.21942000     -2.46704000      5.25343000       1
I              -5.32466000      1.53237000     -4.63099000      53
I               4.34886000     -5.51761000     -1.79852000      53
C               1.47838000      5.84911000     -4.15542000       6
H              -0.19718300     -7.37329000     -0.03948080       1
H               1.04031000     -7.22404000     -1.32942000       1
H              -5.46587000     -1.15302000     -4.92149000       1
I              -2.13988000     -0.15435700     -7.12979000      53
C               7.32445000      1.40727000     -0.28639600       6
N               0.55239500      6.35704000      3.99822000       7
C               0.85976400     -7.49365000     -0.28639600       6
P               4.43302000      6.11105000     -0.09528210      15
H              -5.08040000     -5.58464000      0.42681300       1
C              -4.86347000     -3.22811000      4.80968000       6
N              -5.91229000     -2.54388000      3.99822000       7
C               1.60121000      5.67282000      4.80968000       6
H               1.10780000      5.08800000      5.58938000       1
H               7.64821000      0.38188000     -0.09409370       1
H              -3.79683000     -6.65258000      0.35059800       1
H               1.34161000      2.04302000     -7.26931000       1
H               0.95428600      6.93686000      3.24637000       1
H              -4.28592000      5.01940000      4.15091000       1
I               4.65230000     -1.01305000      6.18324000      53
H               7.50499000      1.67689000     -1.32942000       1
H               1.23294000      1.75474000      7.50453000       1
H               2.53193000      5.92451000     -4.43248000       1
I              -2.12199000      4.27563000     -6.25218000      53
I              -5.25362000      5.97343000      0.02802120      53
N              -5.77316000     -2.13921000     -5.03777000       7
H               6.36489000     -3.23820000      3.55839000       1
H              -5.34880000     -4.07191000     -4.30090000       1
I              -2.12566000     -4.62529000     -6.25218000      53
H               6.14416000     -2.17413000     -4.77097000       1
I              -1.96321000      3.45794000      7.03161000      53
H               6.40528000     -1.94927000      4.60692000       1
H              -6.55714000     -3.23820000      3.55839000       1
N              -4.80660000     -6.57591000      0.58255100       7
I               7.66474000     -2.92749000      0.02802120      53
H              -6.51676000     -1.94927000      4.60692000       1
H              -0.31318900      6.72680000     -4.77097000       1
H               7.41163000     -1.96406000      3.24637000       1
I               4.32114000     -0.15435700     -7.12979000      53
H              -0.05206960      6.95165000      4.60692000       1
H              -3.92909000      5.92451000     -4.43248000       1
H              -5.34513000      4.82901000     -4.30090000       1
H               7.99565000      2.09356000      1.58866000       1
N               0.69152600      6.76171000     -5.03777000       7
N               7.00974000     -2.54388000      3.99822000       7
N               8.11910000      2.32501000      0.58255100       7
I               1.27601000     -7.24107000      4.25161000      53
H               7.84531000      3.31628000      0.42681300       1
I              -2.00720000      7.84180000     -2.74504000      53
H              -4.93005000     -6.80736000      1.58866000       1
H              -6.77788000     -2.17413000     -4.77097000       1
H               1.18352000     -8.51904000     -0.09409370       1
H              -5.12691000      6.16265000     -3.11926000       1
H               2.24527000      6.43388000      5.25343000       1
H              -5.35689000     -3.81293000      5.58938000       1
H              -5.68597000     -2.40640000     -6.03698000       1
I              -8.45327000     -0.19352900      1.75264000      53
N               1.51273000      2.29564000     -8.26349000       7
C               1.00607000      1.45873000      8.53119000       6
P              -1.96350000     -7.27370000      4.40734000      15
I               4.33903000      4.27563000     -6.25218000      53
C              -4.98263000      5.84911000     -4.15542000       6
P              -2.09680000     -7.24625000     -4.43771000      15
I               1.13268000     -7.36855000     -4.63099000      53
H               1.28232000      0.41529900      8.69893000       1
H               7.79145000     -2.73827000     -3.11926000       1
C              -4.85980000      5.67282000      4.80968000       6
H              -0.05329880      1.61301000      8.74722000       1
H               0.77872000      6.49452000     -6.03698000       1
I               4.33536000     -4.62529000     -6.25218000      53
P              -8.49269000     -2.78987000     -0.09528210      15
I              -8.47189000     -1.05913000     -2.74504000      53
I               7.74070000      1.65985000      4.25161000      53
N               7.14887000     -2.13921000     -5.03777000       7
H               7.45616000     -1.15302000     -4.92149000       1
I               7.59737000      1.53237000     -4.63099000      53
I               4.49780000      3.45794000      7.03161000      53
H               0.98875900      0.39618100     -9.02189000       1
H               2.52663000      2.17587000     -8.45327000       1
I              -1.98859000      8.70739000      1.75264000      53
I              -1.96688000     -5.44299000      7.03161000      53
H               1.28688000      3.30136000     -8.39689000       1
H              -0.34685600      1.59389000     -8.97360000       1
H              -5.11940000      2.04302000     -7.26931000       1
H              -5.42071000     -7.22404000     -1.32942000       1
H               0.99881700      7.74791000     -4.92149000       1
H               6.36856000      5.66272000      3.55839000       1
H              -5.35322000      5.08800000      5.58938000       1
I               1.06263000     -2.92935000     -8.73956000      53
H              -5.22808000      1.75474000      7.50453000       1
H              -4.21575000      6.43388000      5.25343000       1
C               0.71251600      1.43961000     -9.18963000       6
H               1.19087000      9.28280000     -0.09409370       1
C              -5.60125000     -7.49365000     -0.28639600       6
H              -6.55347000      5.66272000      3.55839000       1
I              -8.56950000      3.38331000     -1.79852000      53
H               9.12887000      2.24834000      0.35059800       1
I               4.45382000      7.84180000     -2.74504000      53
H              -5.50673000      6.93686000      3.24637000       1
P              -1.87793000     -2.77380000      8.82342000      15
C               7.93573000     -3.05182000     -4.15542000       6
I              -1.99593000     -9.09445000      1.75264000      53
I               1.35618000     -2.91023000      8.98126000      53
P               4.36422000     -7.24625000     -4.43771000      15
N              -5.90862000      6.35704000      3.99822000       7
H              -3.93439000      2.17587000     -8.45327000       1
P              -2.17149000     -2.79292000     -8.89739000      15
H               7.57324000     -4.07191000     -4.30090000       1
P               4.49752000     -7.27370000      4.40734000      15
H               7.84164000     -5.58464000      0.42681300       1
P              -8.42084000      1.62722000      4.40734000      15
H               6.26383000     -7.37329000     -0.03948080       1
I               7.66841000      5.97343000      0.02802120      53
H               7.23607000     -2.40640000     -6.03698000       1
I              -8.40608000      4.26481000      2.58075000      53
P              -8.55414000      1.65467000     -4.43771000      15
I              -5.18501000     -7.24107000      4.25161000      53
N              -4.94829000      2.29564000     -8.26349000       7
N               1.80628000      2.31475000      9.45732000       7
C               8.05856000     -3.22811000      4.80968000       6
H               2.82018000      2.19498000      9.26755000       1
H              -6.65820000     -7.37329000     -0.03948080       1
I              -8.40976000     -4.63611000      2.58075000      53
I               4.47243000      8.70739000      1.75264000      53
H               7.57691000      4.82901000     -4.30090000       1
I               4.49413000     -5.44299000      7.03161000      53
