200
cutoff_factor=1.20000000 nneightol=1.20000000 Lattice="28.48153000       0.00000000       0.00000000       0.00000000      28.80959000       0.00000000       0.00000000       0.00000000      29.12267000" Properties=species:S:1:pos:R:3:Z:I:1
P               0.49008300      0.01091800     -0.01736350      15
I              -2.20302000     -1.75738000      0.06788930      53
I              -1.21446000      2.66025000     -0.51627100      53
I               0.39404500      0.55127700      3.14394000      53
I               0.93610200     -0.33824600     -3.17963000      53
I               2.29805000     -2.68810000      0.44561200      53
I               3.31108000      1.75485000      0.06896930      53
H               0.43885000      3.11204000      2.75132000       1
H              -2.63170000      0.01291120     -3.31340000       1
H              -3.61773000     -0.86923800      2.10180000       1
H              -2.73606000      1.16703000      3.06878000       1
H              -0.06884020     -3.75425000     -2.17920000       1
H               3.42037000     -0.40923400     -2.80405000       1
H              -4.31953000     -0.39485200     -1.64086000       1
H               4.17312000      0.32311200      2.10168000       1
H               1.35570000      3.92531000     -2.17860000       1
H               1.52467000     -3.44736000     -2.94455000       1
H               0.66988800     -3.02884000      3.65301000       1
H               0.62340200      4.46328000      1.74862000       1
H               0.45643500     -4.49675000      1.74862000       1
H               4.64178000     -0.39485200     -1.64086000       1
N               0.29563700      4.14185000      2.67935000       7
C              -3.39183000      0.52334600      3.65908000       6
N              -4.22095000     -0.29068000      2.72324000       7
C               0.75993500     -4.19833000     -2.73526000       6
C              -3.67942000      0.24302900     -3.52029000       6
H              -2.80291000     -0.15575900      4.27978000       1
H              -0.73140100      4.30396000      2.75082000       1
N               4.43297000     -0.59466900     -2.63647000       7
H              -4.78818000      0.32311200      2.10168000       1
H              -0.32810000      3.52865000     -3.88971000       1
H              -3.88901000      1.29378000     -3.30702000       1
N              -4.52833000     -0.59466900     -2.63647000       7
H               4.10881000     -0.91057000      3.26785000       1
H              -4.36263000     -1.60978000     -2.80951000       1
N               4.74035000     -0.29068000      2.72324000       7
H              -0.89836700     -4.65607000      2.75082000       1
N               0.12867100     -4.81818000      2.67935000       7
C               0.92690200      4.76170000     -2.73526000       6
H               1.18874000     -5.03472000     -2.17860000       1
H               4.59867000     -1.60978000     -2.80951000       1
C               0.86036100     -4.09925000      3.75934000       6
H               0.09812640      5.20578000     -2.17920000       1
H               5.34357000     -0.86923800      2.10180000       1
P              -3.83157000      4.41377000     -0.01746630      15
N               0.40370600      4.24725000     -4.03233000       7
I              -5.65022000      1.75485000      0.06896930      53
H              -4.85249000     -0.91057000      3.26785000       1
H               1.92717000     -4.30926000      3.65356000       1
H              -4.05999000      1.12479000      4.27964000       1
H              -3.92438000      0.00775981     -4.55865000       1
P              -3.99854000     -4.54626000     -0.01746630      15
H              -0.18998800     -3.95282000     -4.60373000       1
H               1.15604000      3.80664000     -4.60326000       1
H               5.07229000      1.29378000     -3.30702000       1
N               0.23673900     -4.71278000     -4.03233000       7
H              -5.54094000     -0.40923400     -2.80405000       1
C               1.02733000      4.86078000      3.75934000       6
I              -3.29228000      4.30840000      3.14374000      53
H               2.09413000      4.65077000      3.65356000       1
C               5.28188000      0.24302900     -3.52029000       6
P               0.79994700      0.21011300      6.33136000      15
P               0.58152800     -0.00518628     -6.39176000      15
H               0.27188300     -5.84799000      2.75132000       1
I              -1.38143000     -6.29979000     -0.51627100      53
H               1.69164000      5.51267000     -2.94455000       1
H               0.49375400     -4.45882000      4.72336000       1
I              -1.81197000      2.07278000     -5.94961000      53
H               0.66072100      4.50121000      4.72336000       1
I              -3.45925000     -4.65163000      3.14374000      53
H               4.90132000      1.12479000      4.27964000       1
C               5.56947000      0.52334600      3.65908000       6
H              -0.49506600     -5.43138000     -3.88971000       1
P               4.96277000     -4.54626000     -0.01746630      15
I               2.46501000      6.27193000      0.44561200      53
I              -4.33933000     -4.09526000     -3.18008000      53
P               5.12973000      4.41377000     -0.01746630      15
H               5.03693000      0.00775981     -4.55865000       1
H              -0.02302170      5.00721000     -4.60373000       1
I               3.23105000     -1.77241000      5.76353000      53
I              -1.22917000     -2.27639000      6.41607000      53
I              -1.44759000     -2.49168000     -6.30705000      53
I               4.62198000     -4.09526000     -3.18008000      53
H               0.98907500     -5.15339000     -4.60326000       1
I               6.75828000     -1.75738000      0.06788930      53
H               0.83685500      5.93119000      3.65301000       1
H               6.22524000      1.16703000      3.06878000       1
H               6.32961000      0.01291120     -3.31340000       1
I              -4.17236000      4.86477000     -3.18008000      53
I              -6.66325000     -2.68810000      0.44561200      53
I               2.59276000      2.52199000     -6.30793000      53
I              -1.59355000      2.28808000      6.77351000      53
I              -2.03605000      7.20266000      0.06788930      53
H               6.15839000     -0.15575900      4.27978000       1
I               2.81118000      2.73729000      6.41519000      53
I               4.78894000      4.86477000     -3.18008000      53
I               5.66902000      4.30840000      3.14374000      53
I               3.01263000     -1.98771000     -6.95959000      53
I               5.50206000     -4.65163000      3.14374000      53
I               3.14411000     -7.20518000      0.06896930      53
I               7.74684000      2.66025000     -0.51627100      53
I              -5.73026000     -1.77241000      5.76353000      53
P              -8.47122000      0.01091800     -0.01736350      15
P              -3.79334000     -4.24001000      6.33100000      15
I              -8.02520000     -0.33824600     -3.17963000      53
P              -3.62638000      4.72002000      6.33100000      15
H              -7.43663000     -3.44736000     -2.94455000       1
P              -3.84479000      4.50472000     -6.39212000      15
P              -4.01176000     -4.45531000     -6.39212000      15
H              -7.60560000      3.92531000     -2.17860000       1
H              -2.90303000     -7.79301000      3.06878000       1
H              -4.19567000      7.35025000     -2.80951000       1
H               0.02843030     -3.73752000      8.11939000       1
P               0.32311700     -8.94911000     -0.01736350      15
H              -3.70596000      0.22305900      8.16447000       1
H              -3.02133000     -0.37105700     -8.44334000       1
I               0.22707900     -8.40876000      3.14394000      53
P               0.65705000      8.97095000     -0.01736350      15
H              -7.03414000     -4.30926000      3.65356000       1
I              -6.49629000      6.27193000      0.44561200      53
H              -3.45077000      8.09079000      2.10180000       1
H              -6.86717000      4.65077000      3.65356000       1
H               0.44230200      4.28592000     -7.99977000       1
I              -1.28063000      6.46835000     -6.30705000      53
I              -8.56726000      0.55127700      3.14394000      53
H               1.37446000      4.02194000      8.11986000       1
H               4.76564000      7.35025000     -2.80951000       1
P               5.16796000     -4.24001000      6.33100000      15
P               4.94954000     -4.45531000     -6.39212000      15
I               1.10307000      8.62179000     -3.17963000      53
I              -5.81719000     -7.20518000      0.06896930      53
H               0.27533600     -4.67412000     -7.99977000       1
H              -4.05598000     -7.66625000     -3.30702000       1
I              -6.15012000      2.73729000      6.41519000      53
I              -6.36854000      2.52199000     -6.30793000      53
I              -1.97893000     -6.88725000     -5.94961000      53
I               2.64421000     -6.22274000      6.41519000      53
I              -1.06221000      6.68365000      6.41607000      53
I               2.42580000     -6.43804000     -6.30793000      53
P               5.11651000      4.50472000     -6.39212000      15
I              -5.94867000     -1.98771000     -6.95959000      53
P               9.45139000      0.01091800     -0.01736350      15
H              -8.52245000      3.11204000      2.75132000       1
H              -4.27840000      0.90949400     -8.44348000       1
H              -7.77257000     -5.03472000     -2.17860000       1
I               7.14934000      2.07278000     -5.94961000      53
P               5.33493000      4.72002000      6.33100000      15
H              -8.29141000     -3.02884000      3.65301000       1
H               1.20749000     -4.93809000      8.11986000       1
I               0.17562700      0.33597800     -9.57918000      53
H              -7.26966000      5.51267000     -2.94455000       1
H              -0.10968100      3.74395000      8.83342000       1
C              -8.20137000     -4.19833000     -2.73526000       6
I               1.15452000     -0.12294800      9.54349000      53
H              -8.33790000      4.46328000      1.74862000       1
H               0.45147000     -3.24414000     -9.07011000       1
H               0.19539700      5.22251000      8.11939000       1
H              -4.15256000      8.56518000     -1.64086000       1
I              -1.76051000     -6.67195000      6.77351000      53
H               4.27578000      8.04946000      3.26785000       1
H               4.90532000     -7.66625000     -3.30702000       1
H               8.22990000      4.30396000      2.75082000       1
H               3.58733000      8.55080000     -2.80405000       1
H               4.68290000      0.90949400     -8.44348000       1
H               8.06294000     -4.65607000      2.75082000       1
H               5.25535000      0.22305900      8.16447000       1
H              -2.41328000      0.22821000      9.40972000       1
C              -8.03440000      4.76170000     -2.73526000       6
H               4.00615000     -8.63692000      2.10168000       1
C              -3.61025000      0.30804700     -9.06404000       6
H              -8.50487000     -4.49675000      1.74862000       1
N               0.62212500      4.46255000      8.69079000       7
N              -4.36137000      8.36536000     -2.63647000       7
N               0.45515800     -4.49748000      8.69079000       7
I               3.39801000      7.18762000      5.76353000      53
C              -8.10094000     -4.09925000      3.75934000       6
H              -7.80526000      3.80664000     -4.60326000       1
C              -3.46101000      0.45832800      9.20283000       6
I               0.76913600     -9.29828000     -3.17963000      53
C              -3.55879000     -8.43669000      3.65908000       6
I               7.57987000     -6.29979000     -0.51627100      53
H              -4.68552000      8.04946000      3.26785000       1
H              -2.46473000      8.97294000     -3.31340000       1
H              -4.22695000     -7.83524000      4.27964000       1
I               9.35535000      0.55127700      3.14394000      53
H               8.89246000     -3.75425000     -2.17920000       1
N               4.59994000      8.36536000     -2.63647000       7
H              -2.79866000     -8.94712000     -3.31340000       1
N              -4.05399000      8.66935000      2.72324000       7
H               4.80874000      8.56518000     -1.64086000       1
C               0.64194300     -4.31455000     -8.96378000       6
N              -8.66566000      4.14185000      2.67935000       7
I               6.92525000      7.20266000      0.06788930      53
H               5.51053000      8.09079000      2.10180000       1
H              -9.03014000     -3.75425000     -2.17920000       1
I               0.56101200      9.51131000      3.14394000      53
C              -7.93397000      4.86078000      3.75934000       6
H               8.63320000      3.52865000     -3.88971000       1
H               4.73435000     -7.83524000      4.27964000       1
I               7.51371000     -2.49168000     -6.30705000      53
