200
cutoff_factor=1.20000000 nneightol=1.20000000 Lattice="29.23115000       0.00000000       0.00000000       0.00000000      28.51825000       0.00000000       0.00000000       0.00000000      28.17699000" Properties=species:S:1:pos:R:3:Z:I:1
H              -0.40265300      0.02879520      1.92875000       1
H              -0.77373100      1.93700000      0.50052400       1
I               1.19092000     -1.74436000      0.56067200      53
C              -0.38774600      2.07235000      1.51241000       6
N              -0.79870700      0.90050400      2.33699000       7
H               0.70353500      2.11993000      1.50064000       1
H               0.13111800     -2.18715000     -1.75692000       1
H              -1.83032000      0.82085400      2.37244000       1
I              -2.41974000      1.06710000     -1.82540000      53
I               2.02711000      1.87271000     -2.07093000      53
H              -0.42800800      1.00795000      3.30407000       1
H              -0.80323800      2.97574000      1.96269000       1
N               0.06989880     -2.69240000     -2.66601000       7
H              -0.53013200     -1.00203000     -3.77513000       1
P               3.88362000     -0.42450700     -0.70363500      15
I              -3.17479000     -2.50196000      0.91745400      53
H              -1.87021000     -2.02805000     -3.16506000       1
H               1.03719000     -2.71495000     -3.04998000       1
C              -0.87274100     -2.02581000     -3.61023000       6
H              -0.20611000     -3.67090000     -2.45046000       1
P              -0.61830300     -4.09060000      1.98107000      15
P              -0.63217600      3.21101000     -3.30980000      15
I               4.06819000      1.42674000      1.93381000      53
H               3.02658000      3.82927000     -0.82450600       1
P              -4.98083000     -0.42450700     -0.70363500      15
H               3.51542000     -0.99331600      3.52767000       1
I              -0.36544600     -2.31133000      4.60560000      53
H              -0.86901200     -2.58635000     -4.54700000       1
H               2.32776000     -1.60729000      4.55795000       1
I              -4.79626000      1.42674000      1.93381000      53
I              -0.61407100      5.29522000     -0.82669800      53
I               3.60649000     -2.35778000     -3.26287000      53
H               4.20422000      3.69903000      0.33899500       1
N               3.61002000      4.38468000     -0.16018600       7
H               2.99243000      4.80729000      0.56696700       1
N               3.35099000     -1.48101000      4.42679000       7
I               1.14218000      1.68267000      5.43052000      53
I              -0.61113300     -5.77244000     -0.82669800      53
H              -4.66023000      3.69903000      0.33899500       1
I              -0.34997200      1.32064000     -5.86062000      53
H               3.67679000     -3.40845000      3.63092000       1
I               5.68967000     -2.50196000      0.91745400      53
I               1.94062000      5.28578000      2.82395000      53
H              -3.73967000     -2.62238000      4.33901000       1
H               3.73726000     -4.95598000     -1.36493000       1
H               3.86187000      0.35144000     -5.05245000       1
H              -3.83795000     -5.12599000     -0.12645700       1
H              -3.80927000      4.91698000     -1.59431000       1
H               3.71428000     -0.86001900      5.17947000       1
H              -5.34903000     -0.99331600      3.52767000       1
I              -2.53720000      4.91066000      3.46653000      53
I              -5.25796000     -2.35778000     -3.26287000      53
C               4.05308000     -2.79914000      4.45529000       6
H               2.34324000      2.02468000     -5.90827000       1
I               1.94356000     -5.78188000      2.82395000      53
I               6.44471000      1.06710000     -1.82540000      53
P               3.80704000      3.28780000      4.55845000      15
N              -5.25443000      4.38468000     -0.16018600       7
I              -3.28680000      1.02028000      6.00467000      53
H               2.99537000     -6.26037000      0.56696700       1
H              -5.83787000      3.82927000     -0.82450600       1
H               3.72975000      2.77195000     -5.28675000       1
C               4.41575000      5.41896000     -0.86644900       6
C              -4.44870000      5.41896000     -0.86644900       6
H              -3.84089000      5.94168000     -0.12645700       1
H              -5.00259000      0.35144000     -5.05245000       1
C              -4.81137000     -2.79914000      4.45529000       6
H               5.02650000     -5.12599000     -0.12645700       1
H              -5.18766000     -3.40845000      3.63092000       1
P              -0.64765000     -0.42096200      7.15642000      15
H               5.12478000     -2.62238000      4.33901000       1
C               4.41869000     -5.64870000     -0.86644900       6
N              -5.51346000     -1.48101000      4.42679000       7
I              -3.27133000      4.65226000     -4.46155000      53
H               5.05519000      4.91698000     -1.59431000       1
C              -4.44576000     -5.64870000     -0.86644900       6
H              -3.72420000      1.00959000     -6.12721000       1
N               3.36647000      2.15097000     -6.03943000       7
H              -5.12719000     -4.95598000     -1.36493000       1
P              -0.62124100      6.97706000      1.98107000      15
H               3.73432000      6.11168000     -1.36493000       1
C               4.06855000      0.83283100     -6.01093000       6
H              -5.15017000     -0.86001900      5.17947000       1
I              -6.83734000      1.87271000     -2.07093000      53
H              -3.80633000     -6.15068000     -1.59431000       1
H               3.84639000     -3.28053000      5.41377000       1
I               1.15766000      5.31465000     -5.03570000      53
H               7.03413000      0.82085400      2.37244000       1
I              -2.53426000     -6.15700000      3.46653000      53
P              -5.05742000      3.28780000      4.55845000      15
N               3.61295000     -6.68298000     -0.16018600       7
H              -5.87202000      4.80729000      0.56696700       1
H              -0.88742400      4.84934000      5.91922000       1
I               1.16059000     -5.75301000     -5.03570000      53
C              -4.79590000      0.83283100     -6.01093000       6
H               3.69226000      0.22352000     -6.83530000       1
H               5.02356000      5.94168000     -0.12645700       1
H              -0.20904800      7.39676000     -2.45046000       1
I              -2.51878000     -2.52503000     -6.99969000      53
H              -5.13470000      2.77195000     -5.28675000       1
I              -7.67354000     -1.74436000      0.56067200      53
H               3.02952000     -7.23839000     -0.82450600       1
H               6.99424000     -2.02805000     -3.16506000       1
H               5.14025000      1.00959000     -6.12721000       1
H              -5.01806000     -3.28053000      5.41377000       1
H              -5.13013000      6.11168000     -1.36493000       1
H               5.05812000     -6.15068000     -1.59431000       1
H              -6.53669000     -1.60729000      4.55795000       1
H              -0.54560600     -4.63400000      6.69108000       1
P               3.82545000     -4.14789000     -5.90777000      15
I               1.95903000     -2.14991000     -7.64227000      53
H               3.53089000      2.63866000     -6.93854000       1
I               5.57765000      1.02028000      6.00467000      53
H               8.09072000      1.93700000      0.50052400       1
H              -0.80030000     -8.09192000      1.96269000       1
N               8.06574000      0.90050400      2.33699000       7
N              -5.49798000      2.15097000     -6.03943000       7
I              -3.26839000     -6.41541000     -4.46155000      53
H               4.20716000     -7.36863000      0.33899500       1
N              -5.25150000     -6.68298000     -0.16018600       7
P              -0.60283000     -0.45862400     -8.48515000      15
I               5.59312000      4.65226000     -4.46155000      53
H              -0.41253500      4.63993000     -7.16215000       1
P              -0.62923800     -7.85665000     -3.30980000      15
H              -8.16092000      2.11993000      1.50064000       1
H              -5.17219000      0.22352000     -6.83530000       1
H              -5.86908000     -6.26037000      0.56696700       1
H              -0.88448600     -6.21832000      5.91922000       1
H               8.46180000      0.02879520      1.92875000       1
H              -4.65729000     -7.36863000      0.33899500       1
I               6.32726000      4.91066000      3.46653000      53
C              -0.89115300      5.40988000      6.85599000       6
N               0.06696080      8.37526000     -2.66601000       7
P              -5.03900000     -4.14789000     -5.90777000      15
I               2.01164000     -1.75926000      8.39529000      53
H               8.06121000      2.97574000      1.96269000       1
H              -7.82726000     -2.71495000     -3.04998000       1
H               1.01878000      4.72073000      7.41624000       1
C               8.47671000      2.07235000      1.51241000       6
H              -0.22452200      3.76479000      8.01576000       1
C              -0.88821500     -5.65778000      6.85599000       6
H               1.03425000      8.35271000     -3.04998000       1
C               7.99171000     -2.02581000     -3.61023000       6
H              -6.52122000      2.02468000     -5.90827000       1
H               0.12818000      8.88052000     -1.75692000       1
H               0.70647300     -8.94773000      1.50064000       1
H               8.43644000      1.00795000      3.30407000       1
N               0.05148690      4.74329000      7.80021000       7
C              -0.38480800     -8.99531000      1.51241000       6
H              -5.33356000      2.63866000     -6.93854000       1
I              -6.92383000      5.28578000      2.82395000      53
H              -8.73333000     -2.18715000     -1.75692000       1
H              -0.77079300     -9.13066000      0.50052400       1
I              -3.17772000      8.56570000      0.91745400      53
H               8.33432000     -1.00203000     -3.77513000       1
H               3.67385000      7.65921000      3.63092000       1
H              -1.88863000      5.40764000      7.30116000       1
H              -0.38717900      3.66077000     -8.53747000       1
H              -0.54854400      6.43366000      6.69108000       1
H              -5.83493000     -7.23839000     -0.82450600       1
I              -2.43522000     -2.56487000      8.64082000      53
N              -0.78323300      4.53248000     -8.12923000       7
H              -1.81485000      4.45283000     -8.09378000       1
I               1.18798000      9.32330000      0.56067200      53
P               8.24615000     -4.09060000      1.98107000      15
H               8.99557000     -2.18715000     -1.75692000       1
H              -1.88569000     -5.66002000      7.30116000       1
P               8.23228000      3.21101000     -3.30980000      15
I              -6.92089000     -5.78188000      2.82395000      53
H              -9.26710000      0.02879520      1.92875000       1
I               6.33019000     -6.15700000      3.46653000      53
I               3.58808000      5.07791000      7.20335000      53
H               7.99544000     -2.58635000     -4.54700000       1
N              -8.79455000     -2.69240000     -2.66601000       7
I              -7.72227000      1.68267000      5.43052000      53
C              -9.25220000      2.07235000      1.51241000       6
I               5.59606000     -6.41541000     -4.46155000      53
H              -0.40959700     -6.42774000     -7.16215000       1
H              -0.78482600     -4.45995000     -8.50353000       1
I               2.03005000     -9.19495000     -2.07093000      53
H              -0.87195000      8.48132000     -4.54700000       1
N               8.93435000     -2.69240000     -2.66601000       7
H               8.65834000     -3.67090000     -2.45046000       1
H              -3.82474000      1.28501000      8.87191000       1
H              -1.87315000      9.03962000     -3.16506000       1
C              -0.87567900      9.04185000     -3.61023000       6
I               6.34567000     -2.52503000     -6.99969000      53
P               3.80997000     -7.77986000      4.55845000      15
I              -0.62954500      1.66325000      9.63952000      53
H               1.02171000     -6.34693000      7.41624000       1
I               8.25038000      5.29522000     -0.82669800      53
H              -9.63818000      1.93700000      0.50052400       1
P               3.82251000      6.91977000     -5.90777000      15
I              -0.36838400      8.75633000      4.60560000      53
H              -9.29246000      1.00795000      3.30407000       1
H               9.56799000      2.11993000      1.50064000       1
I               8.49900000     -2.31133000      4.60560000      53
H              -5.19060000      7.65921000      3.63092000       1
I               3.60356000      8.70988000     -3.26287000      53
N              -9.66316000      0.90050400      2.33699000       7
