200
cutoff_factor=1.20000000 nneightol=1.20000000 Lattice="29.54895000       0.00000000       0.00000000       0.00000000      29.20219000       0.00000000       0.00000000       0.00000000      29.91545000" Properties=species:S:1:pos:R:3:Z:I:1
I               0.42815200     -0.24592200      1.29504000      53
H               0.80037100     -1.79445000     -0.62417200       1
P              -2.16569000      1.77969000      0.73874900      15
N               0.74051800     -2.58959000     -1.29527000       7
H              -1.32938000     -2.39170000     -1.61047000       1
H              -0.28709900     -1.54507000     -2.80244000       1
I              -1.87987000      1.19342000     -2.38005000      53
C              -0.41888500     -2.45333000     -2.21049000       6
P               2.96666000      1.83140000      0.65451500      15
H               0.63171000     -3.45674000     -0.71832700       1
H               1.62452000     -2.70041000     -1.84295000       1
I               2.59768000      1.35664000     -2.47315000      53
I               0.37280900      3.85701000      0.09823070      53
H              -0.44419100     -3.33222000     -2.85790000       1
I              -4.66222000     -0.24387900      0.82774100      53
I              -1.79671000      2.25445000      3.86642000      53
P               0.25231600      3.35734000     -3.45871000      15
P               0.54865200      0.25375300      4.85195000      15
H              -3.98510000     -0.24022900     -2.89267000       1
I               2.68084000      2.41768000      3.77331000      53
H              -3.06246000     -3.29554000      3.00367000       1
I               0.27036100     -5.44336000      0.56552000      53
I               5.44222000     -0.24387900      0.82774100      53
H               4.52702000      0.10190000     -3.27557000       1
H               0.00058311      5.40555000      2.01743000       1
H              -5.02357000     -2.23050000      2.11158000       1
I               3.26190000     -3.42930000     -3.54162000      53
H               5.08086000     -2.23050000      2.11158000       1
N              -4.76274000     -0.50362400     -3.53201000       7
I               2.45069000     -2.25794000      4.93488000      53
H               4.08808000     -2.98683000      3.23622000       1
I              -4.64125000      3.85498000      0.56552000      53
H               0.94298000     -0.69238200     -6.00125000       1
H               2.64074000     -1.05482000     -5.54690000       1
H              -3.94762000     -2.35503000      4.25113000       1
H               5.05023000     -1.49346000     -3.38769000       1
C              -3.97294000     -3.23392000      3.60371000       6
H              -3.46388000     -0.88240400     -5.14407000       1
H              -5.05420000     -1.49346000     -3.38769000       1
H               0.66234700     -4.19376000      4.78092000       1
N               5.34169000     -0.50362400     -3.53201000       7
N               4.97206000     -3.09765000      2.68853000       7
H              -5.57741000      0.10190000     -3.27557000       1
H              -4.08106000      0.79940800     -5.03710000       1
N              -5.13237000     -3.09765000      2.68853000       7
I              -1.69253000     -1.82059000      6.08263000      53
C              -4.33507000     -0.25817700     -4.93459000       6
H               4.91220000     -3.89278000      2.01743000       1
C               1.81418000     -1.31660000     -6.21075000       6
I              -2.69932000     -3.86666000     -4.68938000      53
I               5.46318000      3.85498000      0.56552000      53
H               1.08811000      5.15616000      4.19566000       1
H               1.56018000     -2.37419000     -6.10825000       1
N               0.06045040      6.20069000      2.68853000       7
H               6.11934000     -0.24022900     -2.89267000       1
H              -5.19224000     -3.89278000      2.01743000       1
I               0.17839300      2.29188000     -6.45594000      53
H              -3.72605000      3.50921000      4.66878000       1
H              -0.40675800     -5.44700000      4.28591000       1
H               2.13036000      6.00280000      3.00367000       1
I              -1.64972000      5.86904000     -3.54162000      53
H              -0.82353800      6.31151000      3.23622000       1
C               1.21988000      6.06441000      3.60371000       6
N               0.37090000     -5.18361000      4.92524000       7
H              -4.10471000     -4.14218000      4.19566000       1
I              -4.82001000     -5.44133000      0.09823070      53
H              -4.27990000      5.84160000     -0.71832700       1
H               0.16924900      7.06784000      2.11158000       1
P              -7.13778000      1.83140000      0.65451500      15
H              -6.01636000     -2.98683000      3.23622000       1
H               4.94281000     -0.51995400     -5.59845000       1
H               4.78606000      3.85133000      4.28591000       1
H               1.18556000     -5.78912000      4.66878000       1
I               5.28442000     -5.44133000      0.09823070      53
C               5.76936000     -0.25817700     -4.93459000       6
I               2.49350000      5.43167000     -4.68938000      53
H              -3.28710000      6.59793000     -1.84295000       1
H              -5.16163000     -0.51995400     -5.59845000       1
C               6.13149000     -3.23392000      3.60371000       6
P              -2.22616000     -7.46693000      0.65451500      15
H              -5.31837000      3.85133000      4.28591000       1
H               6.15681000     -2.35503000      4.25113000       1
N              -4.54071000      4.11473000      4.92524000       7
H               6.02337000      0.79940800     -5.03710000       1
I               0.62258000      1.31921000      7.84919000      53
N              -4.17110000      6.70874000     -1.29527000       7
N               2.24182000     -1.07114000     -7.61333000       7
I              -7.50676000      1.35664000     -2.47315000      53
P               2.74592000     -7.51865000      0.73874900      15
H               3.86344000      6.90664000     -1.61047000       1
H               4.74863000      5.96612000     -2.85790000       1
H               2.53327000     -0.08129840     -7.75765000       1
H              -0.92794200     -4.80485000      6.53733000       1
P               7.93874000      1.77969000      0.73874900      15
H              -4.24927000      5.10457000      4.78092000       1
H               1.24520000      6.94330000      4.25113000       1
I              -2.51198000     -6.88066000      3.77331000      53
H               5.82453000      5.84160000     -0.71832700       1
H               7.04197000     -3.29554000      3.00367000       1
C              -0.05674460     -5.42907000      6.32782000       6
H               5.99972000     -4.14218000      4.19566000       1
I              -6.84254000     -3.42930000     -3.54162000      53
H               6.64055000     -0.88240400     -5.14407000       1
P              -4.94050000     -5.94100000     -3.45871000      15
H               1.46416000     -1.33454000     -8.25266000       1
N               5.56372000      4.11473000      4.92524000       7
H               0.13861800      7.80487000     -3.38769000       1
H              -5.35581000      5.96612000     -2.85790000       1
H               4.88207000      2.81168000      6.43032000       1
H              -0.14198500      4.30347000      7.39450000       1
H              -1.83973000      4.66591000      6.94012000       1
H              -4.11124000      7.50388000     -0.62417200       1
P               5.16393000     -5.94100000     -3.45871000      15
H               3.05648000     -1.67666000     -7.86979000       1
I               3.11490000     -7.04389000      3.86642000      53
C               4.77393000      6.84501000     -2.21049000       6
H              -2.23379000     -0.02971030     -8.34291000       1
I               8.22456000      1.19342000     -2.38005000      53
H               6.37838000      3.50921000      4.66878000       1
I              -7.42360000      2.41768000      3.77331000      53
I              -2.59514000     -7.94170000     -2.47315000      53
H              -2.07670000      1.75743000     -8.28744000       1
H               0.76981400     -5.16729000      6.99167000       1
H              -5.22236000      2.81168000      6.43032000       1
H               3.07189000     -4.63242000      6.94012000       1
C              -4.96836000      3.86926000      6.32782000       6
I               4.32162000      1.85453000     -7.60369000      53
I              -2.46092000      7.04040000      4.93488000      53
C              -5.33050000      6.84501000     -2.21049000       6
I               3.03174000     -8.10492000     -2.38005000      53
H               4.26488000      4.49349000      6.53733000       1
C               5.13607000      3.86926000      6.32782000       6
N               5.93334000      6.70874000     -1.29527000       7
H              -8.47991000     -2.70041000     -1.84295000       1
I               0.53060400      9.05446000      0.82774100      53
H              -4.14180000      4.13104000      6.99167000       1
C              -1.01318000      4.92769000      7.60398000       6
H               5.85517000      5.10457000      4.78092000       1
H              -0.31074600     -6.48666000      6.43032000       1
P               2.41957000      4.36622000     -7.68662000      15
H               4.15245000     -3.31306000      7.50147000       1
I              -0.64105900     -2.76819000     -8.76526000      53
C              -2.10202000      0.87854500     -8.93486000       6
H               8.77505000     -2.39170000     -1.61047000       1
P              -1.61861000     -0.75513000      9.07987000      15
H              -7.46370000     -1.05482000     -5.54690000       1
I              -7.65374000     -2.25794000      4.93488000      53
I               8.30772000      2.25445000      3.86642000      53
H              -6.24099000      6.90664000     -1.61047000       1
N               0.43007400      8.79471000     -3.53201000       7
H              -9.30406000     -1.79445000     -0.62417200       1
P              -2.77324000     -4.93212000     -7.68662000      15
I               7.40512000     -3.86666000     -4.68938000      53
I               0.24939900     -9.54221000      0.82774100      53
H               1.20772000      9.05811000     -2.89267000       1
H               4.90572000      7.75327000     -2.80244000       1
C               3.89844000     -4.37064000      7.60398000       6
H               5.99319000      7.50388000     -0.62417200       1
H              -0.75916900      5.98528000      7.50147000       1
H              -1.19154000      0.81692700     -9.53490000       1
H               6.81734000      6.59793000     -1.84295000       1
I              -5.78282000      1.85453000     -7.60369000      53
H              -5.19871000      7.75327000     -2.80244000       1
I              -9.67628000     -0.24592200      1.29504000      53
H              -0.66579400     -9.19644000     -3.27557000       1
N              -9.36391000     -2.58959000     -1.29527000       7
I              -3.52064000      1.75657000      8.99695000      53
H              -3.35144000      6.92414000     -6.10825000       1
H              -5.83956000      4.49349000      6.53733000       1
H               0.83055000     -8.49893000     -5.03710000       1
H              -0.38458900      9.40023000     -3.27557000       1
H               0.92651700     -9.53856000     -2.89267000       1
H               1.72894000      8.41593000     -5.14407000       1
H              -1.73230000      3.69241000      9.15088000       1
H               5.96263000      4.13104000      6.99167000       1
H              -9.47272000     -3.45674000     -0.71832700       1
H               4.76963000     -4.99487000      7.39450000       1
H              -5.95199000     -3.31306000      7.50147000       1
I              -4.48346000      9.05241000      1.29504000      53
H              -2.27088000      8.24351000     -5.54690000       1
C               9.68555000     -2.45333000     -2.21049000       6
H              -4.14543000      1.12564000     -9.30235000       1
N              -1.44085000      4.68224000      9.00656000       7
I               3.50029000      7.47775000      6.08263000      53
H               2.87771000      1.85365000      9.68067000       1
H               9.81733000     -1.54507000     -2.80244000       1
C               0.85774600      9.04016000     -4.93459000       6
H              -5.33480000     -4.99487000      7.39450000       1
H               0.03119370      8.77838000     -5.59845000       1
N               0.14886900     -9.80196000     -3.53201000       7
H              -7.97408000      6.00280000      3.00367000       1
I               4.98582000     -2.93142000     -8.67215000      53
N              -3.26145000      1.01482000     -9.85005000       7
H               2.65610000     -4.01057000      9.26300000       1
C              -8.29025000     -1.31660000     -6.21075000       6
I              -7.61093000      5.43167000     -4.68938000      53
I               0.72675400     -2.75583000     10.06540000      53
I              -9.73162000      3.85701000      0.09823070      53
I              -5.11861000     -2.93142000     -8.67215000      53
I               8.41190000     -1.82059000      6.08263000      53
