200
cutoff_factor=1.20000000 nneightol=1.20000000 Lattice="28.26585000       0.00000000       0.00000000       0.00000000      28.21361000       0.00000000       0.00000000       0.00000000      28.68541000" Properties=species:S:1:pos:R:3:Z:I:1
H               0.11226000      0.38742600     -1.08608000       1
I               1.25514000      0.02506540      1.23575000      53
N               0.06478580      0.91610100     -1.98264000       7
H              -0.09416360      1.91207000     -1.73027000       1
H               1.00353000      0.84825400     -2.42382000       1
H              -0.54236800     -2.69885000      1.35479000       1
C              -1.00586000      0.40321300     -2.88339000       6
H              -1.96425000      0.49233800     -2.36709000       1
H              -0.79206800     -0.64235000     -3.11643000       1
I              -3.16068000      1.02432000      1.27389000      53
P              -0.53465700      2.33371000      2.64670000      15
I              -2.34631000     -2.85083000     -1.06891000      53
C              -0.24532400     -3.32419000      2.19916000       6
I              -0.17571800      4.04573000     -0.08664150      53
H              -1.00321000      1.00706000     -3.79296000       1
H               0.81474100     -3.18374000      2.42213000       1
P               3.89363000     -1.34772000      0.05659450      15
H              -0.86974800     -1.91303000      3.63433000       1
I               2.09873000     -3.50442000     -1.57910000      53
I               3.61944000      0.43381600     -2.67675000      53
N              -1.03686000     -2.90972000      3.39441000       7
H               2.75474000      3.77723000     -0.26259300       1
H              -0.45687400     -4.37555000      1.99146000       1
H              -2.05519000     -3.05098000      3.23734000       1
H               4.13840000      2.83881000      0.07340530       1
P              -4.91199000     -1.34772000      0.05659450      15
I              -0.87893200      0.33744100      5.19816000      53
N               3.78964000      3.75344000     -0.28550500       7
H              -4.66722000      2.83881000      0.07340530       1
H              -0.74061600     -3.47046000      4.21926000       1
H               2.53165000      0.58078000      4.88047000       1
P              -0.55795900     -4.98364000     -2.58099000      15
H               3.97859000      1.05542000      3.93189000       1
I               2.07157000      3.78043000      3.74114000      53
H               4.13196000      3.87156000     -1.26408000       1
I               4.13941000     -3.07805000      2.73176000      53
I              -5.18617000      0.43381600     -2.67675000      53
H              -3.36542000      4.78766000      0.51624400       1
I               5.64494000      1.02432000      1.27389000      53
I               1.12667000      3.91724000     -4.30080000      53
H               3.80056000     -0.63366700      4.51277000       1
C               3.60162000      0.41681200      4.73383000       6
H               4.02100000     -1.78925000     -4.24233000       1
H              -4.67366000      3.87156000     -1.26408000       1
I              -4.66621000     -3.07805000      2.73176000      53
N              -5.01597000      3.75344000     -0.28550500       7
I              -0.99332200     -3.21849000     -5.29687000      53
H               3.84959000     -3.35427000     -3.70136000       1
H              -4.82702000      1.05542000      3.93189000       1
H               4.00704000      4.68940000      1.58969000       1
I              -3.24753000      4.39286000     -3.41657000      53
H              -3.58228000     -2.92643000     -4.59790000       1
I              -2.33893000      4.49726000      4.11436000      53
C               4.35019000      4.83959000      0.56424100       6
H               3.95893000     -5.22122000      0.17892500       1
P              -0.52002300      6.03571000     -2.58099000      15
C              -4.45542000      4.83959000      0.56424100       6
H              -4.78461000     -1.78925000     -4.24233000       1
N               4.19832000     -2.78055000     -4.49733000       7
H              -5.00505000     -0.63366700      4.51277000       1
H               2.41726000     -2.97515000     -5.61456000       1
H              -3.46789000      0.62949900      5.89714000       1
P               3.74695000      2.40489000     -5.24864000      15
H              -4.79858000      4.68940000      1.58969000       1
I              -2.45332000      0.94132900     -6.38067000      53
H              -0.41893800      6.64381000      1.99146000       1
I              -0.21365400     -6.97363000     -0.08664150      53
N              -4.60730000     -2.78055000     -4.49733000       7
I               1.95718000      0.22449800     -6.75389000      53
H              -4.95602000     -3.35427000     -3.70136000       1
H               3.99687000      5.79813000      0.17892500       1
C              -5.20399000      0.41681200      4.73383000       6
H              -3.40336000     -6.23169000      0.51624400       1
H              -4.84668000     -5.22122000      0.17892500       1
H              -6.05088000      3.77723000     -0.26259300       1
I               6.45930000     -2.85083000     -1.06891000      53
I               1.20312000     -3.54619000      6.19423000      53
H               6.84137000      0.49233800     -2.36709000       1
H               5.44019000      4.78766000      0.51624400       1
N               4.31271000      0.77538200      5.99770000       7
C               3.48723000     -3.13912000     -5.76120000       6
H              -0.81706900      3.99296000     -6.27577000       1
N              -4.49291000      0.77538200      5.99770000       7
H              -4.80875000      5.79813000      0.17892500       1
H               5.22333000     -2.92643000     -4.59790000       1
C               4.31226000     -6.17976000      0.56424100       6
H               3.96910000     -6.32995000      1.58969000       1
I              -7.55047000      0.02506540      1.23575000      53
C              -4.49336000     -6.17976000      0.56424100       6
P              -5.05866000      2.40489000     -5.24864000      15
H               4.13539000      1.76668000      6.25270000       1
I              -6.70689000     -3.50442000     -1.57910000      53
H               2.71680000     -7.24213000     -0.26259300       1
I               5.55809000      4.39286000     -3.41657000      53
H               3.96398000      0.20165600      6.79367000       1
H              -0.67767800      2.91358000      7.37860000       1
P              -0.64904700     -1.22222000     -7.84833000      15
H              -6.27397000      0.58078000      4.88047000       1
I               2.13666000      7.51494000     -1.57910000      53
H               5.33772000      0.62949900      5.89714000       1
H              -4.67022000      1.76668000      6.25270000       1
C              -0.20738800      7.69516000      2.19916000       6
H               3.86420000     -2.50051000     -6.56315000       1
P              -0.44356900     -1.42771000      7.91404000      15
I              -2.37687000     -6.52209000      4.11436000      53
H               6.75042000     -3.05098000      3.23734000       1
H              -4.83651000     -6.32995000      1.58969000       1
I              -3.28546000     -6.62649000     -3.41657000      53
H              -0.88882400      4.56299000      6.70208000       1
H               3.68617000     -4.18960000     -5.98226000       1
N               3.75171000     -7.26591000     -0.28550500       7
H              -7.80208000      0.84825400     -2.42382000       1
P               3.82341000     -5.05853000      5.24639000      15
H               0.85267700      7.83562000      2.42213000       1
H               5.40225000     -6.23169000      0.51624400       1
C               7.79976000      0.40321300     -2.88339000       6
H               4.09402000     -7.14779000     -1.26408000       1
I              -3.17107000     -3.07056000      7.07846000      53
H              -4.84163000      0.20165600      6.79367000       1
I               1.08873000     -7.10212000     -4.30080000      53
I               2.03364000     -7.23893000      3.74114000      53
H              -0.50443100      8.32050000      1.35479000       1
C              -5.31838000     -3.13912000     -5.76120000       6
N              -1.11331000      4.55370000     -7.10062000       7
I              -2.30838000      8.16852000     -1.06891000      53
I              -6.73404000      3.78043000      3.74114000      53
H              -4.94141000     -2.50051000     -6.56315000       1
H               8.01355000     -0.64235000     -3.11643000       1
C              -0.89146900      3.95914000      7.61164000       6
H              -4.71159000     -7.14779000     -1.26408000       1
H              -0.70268000      7.54889000      4.21926000       1
H               7.80240000      1.00706000     -3.79296000       1
H              -2.13164000      4.41244000     -7.25769000       1
H              -8.69335000      0.38742600     -1.08608000       1
H               8.26325000     -2.69885000      1.35479000       1
P              -4.98221000     -5.05853000      5.24639000      15
H              -0.98413800     -5.46896000     -6.86070000       1
P               3.86134000      5.96082000      5.24639000      15
H              -2.01725000      7.96837000      3.23734000       1
N              -0.99892100      8.10963000      3.39441000       7
N              -5.05391000     -7.26591000     -0.28550500       7
H              -0.94620200      5.55039000     -6.86070000       1
I               6.46668000      4.49726000      4.11436000      53
H              -5.11944000     -4.18960000     -5.98226000       1
H               7.93587000     -1.91303000      3.63433000       1
H              -7.99087000     -3.18374000      2.42213000       1
N               7.76876000     -2.90972000      3.39441000       7
H               8.91787000      0.38742600     -1.08608000       1
P               8.27096000      2.33371000      2.64670000      15
N              -8.74083000      0.91610100     -1.98264000       7
H              -6.38836000     -2.97515000     -5.61456000       1
I               6.35229000      0.94132900     -6.38067000      53
H              -0.53332800      3.08788000     -8.50357000       1
H               8.71145000      1.91207000     -1.73027000       1
P              -0.57259300     -8.68564000      2.64670000      15
N               8.87040000      0.91610100     -1.98264000       7
H               4.10046000     -8.18055000      0.07340530       1
H               0.73828800      4.27969000     -8.07290000       1
I               2.21312000      0.05151130      8.91593000      53
H               1.11792000      4.40418000      8.07121000       1
H              -8.89978000      1.91207000     -1.73027000       1
H              -1.84986000      4.04827000      8.12795000       1
H              -0.13210000     -9.10729000     -1.73027000       1
I               5.52015000     -6.62649000     -3.41657000      53
C              -0.32177700      4.13923000     -8.29588000       6
H              -0.92676100     -6.45636000      6.70208000       1
P              -4.94427000      5.96082000      5.24639000      15
H               3.88753000      7.66508000     -3.70136000       1
I               4.17734000      7.94131000      2.73176000      53
H              -4.70515000     -8.18055000      0.07340530       1
C               8.56029000     -3.32419000      2.19916000       6
H              -0.85500600     -7.02639000     -6.27577000       1
H              -6.08881000     -7.24213000     -0.26259300       1
I              -0.95538600      7.80087000     -5.29687000      53
I               7.92668000      0.33744100      5.19816000      53
I               8.62990000      4.04573000     -0.08664150      53
I               3.73383000      3.98975000      7.81828000      53
I               5.63454000     -3.07056000      7.07846000      53
I              -4.62827000      7.94131000      2.73176000      53
N               0.17917500      4.47203000      8.51239000       7
I              -6.84843000      0.22449800     -6.75389000      53
I              -7.67895000      3.91724000     -4.30080000      53
H               8.34874000     -4.37555000      1.99146000       1
N              -1.15125000     -6.46565000     -7.10062000       7
I              -2.23192000      0.70509800      9.42612000      53
H               8.06500000     -3.47046000      4.21926000       1
H               3.89265000      1.13347000     -8.90534000       1
I               1.24106000      7.47317000      6.19423000      53
I               4.06295000      4.38538000     -7.76327000      53
H               3.72411000      6.82976000     -5.98226000       1
H              -9.34798000     -2.69885000      1.35479000       1
H              -4.91809000      7.66508000     -3.70136000       1
H              -0.83181200      9.10632000      3.63433000       1
I              -8.98133000      4.04573000     -0.08664150      53
C              -9.05094000     -3.32419000      2.19916000       6
H              -3.54434000      8.09292000     -4.59790000       1
I               7.81229000     -3.21849000     -5.29687000      53
I               1.14076000     -3.53086000     -9.25929000      53
P               8.24766000     -4.98364000     -2.58099000      15
P              -9.34027000      2.33371000      2.64670000      15
