200
cutoff_factor=1.20000000 nneightol=1.20000000 Lattice="28.18822000       0.00000000       0.00000000       0.00000000      28.27209000       0.00000000       0.00000000       0.00000000      28.87676000" Properties=species:S:1:pos:R:3:Z:I:1
I               0.06334890      0.89008000     -1.34231000      53
P               0.03923150     -0.89348600      1.36670000      15
H               2.73041000      0.99147300     -1.29406000       1
H               0.20658900     -1.37856000     -3.06849000       1
H              -3.20428000      0.94799800     -1.17572000       1
I              -1.72498000     -3.11467000     -0.26466100      53
I              -2.51028000      0.61453300      2.46683000      53
I               1.92529000      1.22392000      2.75174000      53
I               2.64333000     -2.41653000      0.17151500      53
H               0.27389500      3.26563000      1.67322000       1
H               0.05979940     -2.92324000     -2.45937000       1
H               3.66121000     -0.37682100     -1.16760000       1
H              -1.12471000      3.78967000      0.68248100       1
N               3.66446000      0.60049800     -1.52595000       7
N               0.38536800     -2.37829000     -3.28127000       7
C              -0.41235200      4.08428000      1.45642000       6
H               1.40609000     -2.52683000     -3.40661000       1
C              -4.16099000      1.40289000     -0.90954400       6
H              -4.30049000      1.39836000      0.17338700       1
H               3.72571000      0.58908000     -2.56414000       1
I               0.11184800     -2.83158000      3.88984000      53
H               4.62055000      1.39836000      0.17338700       1
P              -0.05946420      2.81595000     -3.94430000      15
H              -4.22235000      2.42228000     -1.29550000       1
C               4.76005000      1.40289000     -0.90954400       6
H              -0.30511000     -4.99254000      0.72186600       1
H              -0.93908400      4.39460000      2.35984000       1
H               0.87751500      5.00123000      0.06708380       1
H              -1.42888000     -2.64209000     -4.32994000       1
H              -3.64170000     -1.93468000      3.32045000       1
H              -0.01771010      1.41005000      5.10789000       1
C              -0.36168900     -2.79279000     -4.50780000       6
N               0.37990200      5.24465000      0.95239900       7
H              -5.25983000     -0.37682100     -1.16760000       1
H               4.69869000      2.42228000     -1.29550000       1
N              -5.25658000      0.60049800     -1.52595000       7
I              -1.87955000      0.63053700     -5.35523000      53
I               1.84086000      4.90387000     -2.28816000      53
H              -0.14408700     -0.26198900      5.74928000       1
I               2.64218000      1.30796000     -4.94763000      53
H              -0.02485930     -2.17482000     -5.34289000       1
H               1.01855000     -5.47495000      1.64476000       1
H              -5.19533000      0.58908000     -2.56414000       1
H               4.18692000     -3.14228000      2.56695000       1
N               0.32423700     -5.79182000      0.95239900       7
H               1.07421000      5.56151000      1.64476000       1
I              -2.63307000      4.39150000     -2.94354000      53
H               5.71676000      0.94799800     -1.17572000       1
C              -0.35453900      0.79207500      5.94297000       6
H              -3.27381000     -3.68540000      3.45425000       1
C              -4.06695000     -2.93574000      3.40533000       6
H              -0.15123600     -3.84686000     -4.70149000       1
H               0.82185000     -6.03524000      0.06708380       1
H              -0.24944500      6.04393000      0.72186600       1
H               3.29897000     -2.30982000      4.68118000       1
H              -4.73412000     -3.14228000      2.56695000       1
I               4.19561000     -2.70154000     -3.87167000      53
H              -1.42173000      0.94277500      6.12084000       1
H              -6.19063000      0.99147300     -1.29406000       1
P              -4.42106000     -4.56665000     -1.29167000      15
P              -4.45636000      2.70613000      3.92247000      15
I              -4.37950000      4.65326000      1.32965000      53
H               5.27934000     -1.93468000      3.32045000       1
P               4.46468000      2.70613000      3.92247000      15
P               4.49998000     -4.56665000     -1.29167000      15
C               4.85409000     -2.93574000      3.40533000       6
I               4.54154000      4.65326000      1.32965000      53
I              -4.72543000     -2.70154000     -3.87167000      53
I              -6.27771000     -2.41653000      0.17151500      53
I               1.78519000     -6.13260000     -2.28816000      53
I              -1.87240000      4.21540000      5.09554000      53
N               4.06042000     -3.00512000      4.66708000       7
I               6.41075000      0.61453300      2.46683000      53
H              -0.99474900     -6.64187000      2.35984000       1
C              -0.46801700     -6.95219000      1.45642000       6
H               3.63373000     -3.95105000      4.78475000       1
H               1.41324000      1.05803000      7.04417000       1
N               0.39251700      1.20657000      7.16950000       7
H              -1.18038000     -7.24680000      0.68248100       1
N              -4.86062000     -3.00512000      4.66708000       7
H              -4.24464000     -2.86241000      5.49707000       1
H               5.64723000     -3.68540000      3.45425000       1
H               3.68224000      3.50055000     -5.66602000       1
I              -6.99575000      1.22392000      2.75174000      53
H              -5.62207000     -2.30982000      4.68118000       1
H               0.21373800      2.20631000      7.38228000       1
I              -2.68873000     -6.64496000     -2.94354000      53
H               4.67640000     -2.86241000      5.49707000       1
I               2.64933000      4.89283000      5.50314000      53
I               7.19606000     -3.11467000     -0.26466100      53
I               4.20276000      0.88332700      6.57910000      53
I              -4.43516000     -6.38321000      1.32965000      53
P              -4.36540000      6.46982000     -1.29167000      15
I               4.48588000     -6.38321000      1.32965000      53
H              -4.19612000      4.58919000     -4.95370000       1
H               0.21823000     -7.77083000      1.67322000       1
P               4.45753000     -0.87873500     -6.52831000      15
P              -4.46351000     -0.87873500     -6.52831000      15
P              -0.10798000     -4.63565000      6.50647000      15
P               4.55564000      6.46982000     -1.29167000      15
H               0.06694860      0.66162800      7.99141000       1
I               0.16036300      4.62002000     -6.56093000      53
I              -1.66931000      7.92179000     -0.26466100      53
I              -6.27885000      1.30796000     -4.94763000      53
I              -4.71828000      0.88332700      6.57910000      53
H              -5.28731000     -3.95105000      4.78475000       1
H              -0.94623300      0.80972900     -8.09093000       1
I               6.28797000      4.39150000     -2.94354000      53
H               4.72492000      4.58919000     -4.95370000       1
I               1.91814000     -2.36094000     -7.69903000      53
N               4.10893000      4.44648000     -5.78369000       7
H               3.34749000      5.14178000     -5.76960000       1
H              -5.23880000      3.50055000     -5.66602000       1
H               0.11546400      8.11322000     -2.45937000       1
I              -2.68158000     -3.06009000      7.50724000      53
H              -3.22529000      3.76619000     -6.99652000       1
H              -0.09557080      7.18961000     -4.70149000       1
H              -7.51495000     -2.52683000     -3.40661000       1
I               2.59367000     -6.14364000      5.50314000      53
H               7.79633000      3.78967000      0.68248100       1
I              -1.92806000     -6.82106000      5.09554000      53
H              -3.21814000      7.35106000      3.45425000       1
I               1.79234000     -2.54773000      8.16262000      53
N              -4.81210000      4.44648000     -5.78369000       7
H               0.26674600     -0.31923300     -8.77755000       1
I               7.04149000      0.63053700     -5.35523000      53
H               3.29182000     -5.89469000     -5.76960000       1
I              -2.51743000     -2.97034000     -7.98394000      53
I              -7.08018000      4.90387000     -2.28816000      53
I              -8.85769000      0.89008000     -1.34231000      53
C              -0.41950100      0.49940800     -8.99435000       6
P              -8.88181000     -0.89348600      1.36670000      15
I               2.69900000      8.61994000      0.17151500      53
H               7.49216000     -2.64209000     -4.32994000       1
I               0.16751300      8.20489000      3.88984000      53
H               1.06706000      1.97664000     -8.80601000       1
P               8.96027000     -0.89348600      1.36670000      15
P              -0.11512900     -8.22051000     -3.94430000      15
P              -0.05231500      6.40082000      6.50647000      15
I               8.98439000      0.89008000     -1.34231000      53
H              -4.25179000     -6.44727000     -4.95370000       1
I               0.10469800     -6.41645000     -6.56093000      53
N               0.44103300      8.65817000     -3.28127000       7
H               1.46176000      8.50963000     -3.40661000       1
C              -4.01843000      4.51586000     -7.04544000       6
H               3.68939000      7.08541000      4.78475000       1
H               4.24258000      7.89418000      2.56695000       1
H              -8.71445000     -1.37856000     -3.06849000       1
H               4.66925000     -6.44727000     -4.95370000       1
H              -8.64714000      3.26563000      1.67322000       1
C              -0.30602400      8.24367000     -4.50780000       6
H               7.98195000      4.39460000      2.35984000       1
N              -8.53567000     -2.37829000     -3.28127000       7
H              -8.04352000      5.00123000      0.06708380       1
H              -5.57355000      5.14178000     -5.76960000       1
H              -4.67846000      7.89418000      2.56695000       1
H              -1.37322000      8.39437000     -4.32994000       1
C               8.50869000      4.08428000      1.45642000       6
I               6.23231000     -6.64496000     -2.94354000      53
N               0.37275300      1.65978000     -9.49837000       7
H              -8.86124000     -2.92324000     -2.45937000       1
N               4.05327000     -6.58999000     -5.78369000       7
C              -4.01128000      8.10073000      3.40533000       6
I               7.04864000      4.21540000      5.09554000      53
H               3.73286000      4.17395000      7.88663000       1
I              -6.27171000      4.89283000      5.50314000      53
I              -7.13584000     -6.13260000     -2.28816000      53
C               4.90261000      4.51586000     -7.04544000       6
H              -4.27801000     -8.61418000     -1.29550000       1
H              -3.59319000      5.51692000     -7.13032000       1
H               7.49931000      0.94277500      6.12084000       1
H              -3.64885000     -5.51955000     -7.13032000       1
H               9.12763000     -1.37856000     -3.06849000       1
H              -7.90249000     -5.47495000      1.64476000       1
H              -7.84683000      5.56151000      1.64476000       1
H               8.98084000     -2.92324000     -2.45937000       1
H               5.69575000      3.76619000     -6.99652000       1
H              -1.13186000      0.20479800     -9.76829000       1
H               4.64303000     -8.61418000     -1.29550000       1
H               9.19493000      3.26563000      1.67322000       1
H               5.70290000      7.35106000      3.45425000       1
H               4.23543000      4.30932000     -7.88383000       1
H               8.61593000     -4.99254000      0.72186600       1
H              -5.62922000     -5.89469000     -5.76960000       1
H              -5.23165000      7.08541000      4.78475000       1
N              -4.86777000     -6.58999000     -5.78369000       7
I              -8.80919000     -2.83158000      3.88984000      53
H              -0.25659400      2.45906000     -9.72891000       1
C               4.90976000      8.10073000      3.40533000       6
N              -8.54114000      5.24465000      0.95239900       7
C               8.55935000     -2.79279000     -4.50780000       6
P               8.86157000      2.81595000     -3.94430000      15
H              -8.09919000     -6.03524000      0.06708380       1
H               3.62658000     -7.53592000     -5.66602000       1
I               4.25128000      8.33492000     -3.87167000      53
P               0.03208230     -4.47835000     -9.08407000      15
H              -4.68561000      4.30932000     -7.88383000       1
H               0.26225400      9.65791000     -3.06849000       1
I               0.07049820      4.47495000      9.10847000      53
N               9.30641000     -2.37829000     -3.28127000       7
