200
cutoff_factor=1.20000000 nneightol=1.20000000 Lattice="28.82316000       0.00000000       0.00000000       0.00000000      27.88131000       0.00000000       0.00000000       0.00000000      28.99557000" Properties=species:S:1:pos:R:3:Z:I:1
I               0.85006000      0.14389300      1.19658000      53
H               0.03939950      0.10218200     -1.72247000       1
C              -0.89364300      0.05148000     -2.28721000       6
H              -1.68545000      0.59941500     -1.77148000       1
H              -1.18562000     -0.98822200     -2.44590000       1
P              -1.08757000      2.20967000      2.60352000      15
P               3.35519000     -1.42779000     -0.03453760      15
H              -1.13667000     -1.94469000      2.98557000       1
N              -0.66884400      0.68081000     -3.62064000       7
H               0.14292600     -3.00822000      2.31290000       1
H              -0.34989200      1.67095000     -3.54686000       1
H              -1.96984000     -3.24918000      1.09538000       1
I               1.42340000     -3.45525000     -1.48790000      53
I              -3.73821000      0.78974900      1.49710000      53
H               0.06641520      0.18280000     -4.15293000       1
C              -0.80949800     -2.97755000      2.84704000       6
I               3.28011000      0.53111800     -2.57335000      53
I              -3.05009000     -2.88697000     -1.17451000      53
I              -1.10086000      4.23974000      0.13184900      53
H               3.39611000      2.64558000     -1.06128000       1
H               2.24952000      3.74790000      0.79742600       1
H              -1.52338000      0.67115800     -4.21858000       1
N              -1.83446000     -3.69231000      2.02970000       7
H               2.53088000     -0.13899600      4.31169000       1
N               3.85292000      3.41701000     -0.53337200       7
C               2.85031000      4.32807000      0.09372040       6
H              -0.72492800     -3.48422000      3.81046000       1
H              -2.76903000     -3.69064000      2.48424000       1
H              -1.57706000     -4.68145000      1.84368000       1
H               2.21873000      4.73912000     -0.69649900       1
I              -1.06941000      0.37700800      5.20743000      53
H               4.46510000      2.95224000      0.16661000       1
H               2.72476000      1.52822000      4.36722000       1
H               3.90092000      0.57831800      3.65950000       1
H              -4.54115000      2.95224000      0.16661000       1
I               3.57915000     -3.24407000      2.63840000      53
N               3.22067000      0.61356200      4.45021000       7
I               5.26804000      0.78974900      1.49710000      53
I               1.54367000      3.73807000      3.86861000      53
I               0.83198300      3.86212000     -4.10218000      53
P              -1.09346000     -5.01662000     -2.65319000      15
P              -5.65106000     -1.42779000     -0.03453760      15
H               3.09401000     -3.03790000     -3.92281000       1
H               4.44683000      3.91029000     -1.23459000       1
H              -4.55942000      3.91029000     -1.23459000       1
H               3.38363000      5.12735000      0.61314900       1
N              -5.15333000      3.41701000     -0.53337200       7
I              -1.14733000     -3.20917000     -5.27632000      53
H              -5.61015000      2.64558000     -1.06128000       1
I              -5.72615000      0.53111800     -2.57335000      53
H              -5.10534000      0.57831800      3.65950000       1
P              -1.05137000      6.00121000     -2.65319000      15
H               2.17665000     -6.27872000     -0.69649900       1
P               3.43845000      2.36424000     -5.23479000      15
I              -2.93649000      4.33621000      4.20589000      53
I               5.95616000     -2.88697000     -1.17451000      53
I              -3.64135000      4.36227000     -3.62075000      53
H              -1.53498000      6.33638000      1.84368000       1
I               1.46575000      0.15188800     -6.61515000      53
H               3.34155000     -5.89049000      0.61314900       1
H              -4.45527000     -2.26336000     -4.62649000       1
C               3.84155000     -3.08929000     -4.71642000       6
I              -5.42710000     -3.24407000      2.63840000      53
H               4.55098000     -2.26336000     -4.62649000       1
I              -1.14294000     -6.77810000      0.13184900      53
H               2.64684000     -2.05795000     -6.11653000       1
C               3.91947000      0.49688800      5.76733000       6
I              -3.01441000      0.75003300     -6.27786000      53
C               2.80823000     -6.68977000      0.09372040       6
H               3.17193000      0.54827800      6.56094000       1
H               4.44370000     -0.46000400      5.79567000       1
N              -5.78558000      0.61356200      4.45021000       7
I               0.86782000     -3.56954000      6.38157000      53
H               0.14433400      3.76898000      6.33082000       1
H              -4.56255000     -0.46000400      5.79567000       1
N               3.14275000     -2.97262000     -6.03354000       7
H              -4.37735000      1.32282000      5.85726000       1
C              -6.15594000      4.32807000      0.09372040       6
H               7.32080000      0.59941500     -1.77148000       1
H               4.36578000     -4.04618000     -4.68808000       1
H               4.62890000      1.32282000      5.85726000       1
H               2.45296000     -3.72517000     -6.17206000       1
H              -5.62262000      5.12735000      0.61314900       1
H               2.20744000     -7.26994000      0.79742600       1
C              -5.16471000     -3.08929000     -4.71642000       6
H               6.23722000     -3.69064000      2.48424000       1
C              -5.08679000      0.49688800      5.76733000       6
H              -1.44546000      4.25734000      6.26517000       1
H              -5.91224000     -3.03790000     -3.92281000       1
H              -4.64047000     -4.04618000     -4.68808000       1
H              -6.75673000      3.74790000      0.79742600       1
H              -6.47537000     -0.13899600      4.31169000       1
H              -0.76076500      3.94744000     -6.67329000       1
H              -6.28149000      1.52822000      4.36722000       1
I               5.36490000      4.36227000     -3.62075000      53
N              -1.79238000      7.32553000      2.02970000       7
H               7.03641000     -3.24918000      1.09538000       1
I               1.46548000      7.56259000     -1.48790000      53
P              -5.56780000      2.36424000     -5.23479000      15
P              -1.01554000     -1.43045000      7.83056000      15
H              -1.92776000      7.76866000      1.09538000       1
P               3.47429000     -5.06742000      5.24896000      15
P              -1.16549000     -1.37651000     -7.88023000      15
N              -0.59092500      4.26699000      6.86311000       7
H              -5.66471000     -5.89049000      0.61314900       1
H              -2.72695000      7.32720000      2.48424000       1
I              -8.15619000      0.14389300      1.19658000      53
H               7.82064000     -0.98822200     -2.44590000       1
I               0.78990200     -7.15571000     -4.10218000      53
H              -6.78752000      4.73912000     -0.69649900       1
N               7.17179000     -3.69231000      2.02970000       7
I              -3.60551000     -3.06938000      6.86300000      53
H               0.18500800      8.00962000      2.31290000       1
I               1.50159000     -7.27977000      3.86861000      53
H               3.82300000     -3.00786000     -6.82425000       1
I              -3.68343000     -6.65556000     -3.62075000      53
C               8.11261000      0.05148000     -2.28721000       6
I              -2.97857000     -6.68163000      4.20589000      53
H               4.40475000     -7.10755000     -1.23459000       1
I              -7.58285000     -3.45525000     -1.48790000      53
H              -0.68284600      7.53362000      3.81046000       1
N               3.81084000     -7.60083000     -0.53337200       7
H              -1.10770000      2.59796000      8.03785000       1
H              -4.60150000     -7.10755000     -1.23459000       1
I               6.06976000      4.33621000      4.20589000      53
C              -0.76741600      8.04029000      2.84704000       6
H               7.48287000      0.67115800     -4.21858000       1
P               7.91868000      2.20967000      2.60352000      15
H               7.86958000     -1.94469000      2.98557000       1
P               3.51637000      5.95042000      5.24896000      15
H              -0.27197300      5.25713000      6.93689000       1
I               5.99184000      0.75003300     -6.27786000      53
I              -3.00801000      8.13086000     -1.17451000      53
H              -5.83433000      0.54827800      6.56094000       1
C              -0.84533500      4.45411000     -7.63671000       6
N              -5.86350000     -2.97262000     -6.03354000       7
I               7.90539000      4.23974000      0.13184900      53
I               3.62123000      7.77377000      2.63840000      53
H               7.42919000     -4.68145000      1.84368000       1
C              -0.81572400      3.63766000      8.19654000       6
H              -0.31405500     -5.76071000      6.93689000       1
H              -6.35941000     -2.05795000     -6.11653000       1
H               3.35402000     -8.37226000     -1.06128000       1
H              -5.18325000     -3.00786000     -6.82425000       1
N               8.33741000      0.68081000     -3.62064000       7
C              -6.19803000     -6.68977000      0.09372040       6
I               1.50132000      0.13093200      8.99585000      53
H              -8.96685000      0.10218200     -1.72247000       1
P              -5.53197000     -5.06742000      5.24896000      15
C               8.19675000     -2.97755000      2.84704000       6
I              -7.46258000      3.73807000      3.86861000      53
H               4.42302000     -8.06560000      0.16661000       1
H               9.04565000      0.10218200     -1.72247000       1
H              -1.61290000      2.75020000     -8.64007000       1
N              -5.19541000     -7.60083000     -0.53337200       7
P              -1.12965000     -8.80816000      2.60352000      15
I               5.40074000     -3.06938000      6.86300000      53
I               5.32282000     -6.65556000     -3.62075000      53
H              -2.80486000      3.74102000     -7.99951000       1
H              -4.58324000     -8.06560000      0.16661000       1
H               0.10708900      4.42344000     -8.17085000       1
H              -6.82960000     -6.27872000     -0.69649900       1
H              -1.48754000     -6.76050000      6.26517000       1
H              -1.17251000      5.48697000     -7.49819000       1
H              -1.21459000     -5.53087000     -7.49819000       1
H               3.13609000      7.97994000     -3.92281000       1
N              -1.87029000      3.73935000     -8.45405000       7
H               4.40787000      6.97166000     -4.68808000       1
I              -1.10525000      7.80867000     -5.27632000      53
I               7.93684000      0.37700800      5.20743000      53
H               8.65636000      1.67095000     -3.54686000       1
H               0.11731800      3.68836000      8.76128000       1
I               3.35802000      4.11730000      7.91040000      53
I               3.54331000      4.18759000     -7.84535000      53
H              -4.59839000      6.97166000     -4.68808000       1
H              -1.09459000      9.07315000      2.98557000       1
H               0.10225200     -7.24886000      6.33082000       1
H              -8.86333000     -3.00822000      2.31290000       1
N              -0.63300700     -6.75085000      6.86311000       7
P              -5.48988000      5.95042000      5.24896000      15
P               7.91280000     -5.01662000     -2.65319000      15
H              -6.55329000     -3.72517000     -6.17206000       1
H              -0.80284600     -7.07040000     -6.67329000       1
H               8.28132000     -3.48422000      3.81046000       1
I              -2.97217000      0.69920500      9.30925000      53
H              -1.60753000      4.18559000      8.71227000       1
I              -5.38502000      7.77377000      2.63840000      53
I               0.90990200      7.44830000      6.38157000      53
H              -8.93984000      0.18280000     -4.15293000       1
H               2.49504000      7.29266000     -6.17206000       1
H               9.14918000     -3.00822000      2.31290000       1
I              -8.17427000      3.86212000     -4.10218000      53
H               2.17160000      0.16172200     -9.68632000       1
I               9.85631000      0.14389300      1.19658000      53
I               6.02768000     -6.68163000      4.20589000      53
I               0.77214200     -3.44229000     -9.28717000      53
H               6.27931000      7.32720000      2.48424000       1
H               7.47127000      6.33638000      1.84368000       1
H               9.07267000      0.18280000     -4.15293000       1
H              -6.79881000     -7.26994000      0.79742600       1
