200
cutoff_factor=1.20000000 nneightol=1.20000000 Lattice="28.79519000       0.00000000       0.00000000       0.00000000      29.53883000       0.00000000       0.00000000       0.00000000      28.35178000" Properties=species:S:1:pos:R:3:Z:I:1
I              -0.78330800     -0.99467000     -0.70159400      53
P               1.86228000      0.73417500     -0.71299600      15
H              -1.22864000      0.59104400      2.64092000       1
H              -3.09206000      0.42596900      1.09713000       1
I               2.10986000      0.98338100      2.52545000      53
H              -2.28893000      0.47203100     -2.74633000       1
I               0.21395500      3.53776000     -0.69090600      53
C              -2.23803000      0.85244600      2.96666000       6
N              -3.21527000      0.14309800      2.09018000       7
H              -3.08199000     -0.88596400      2.15729000       1
H               1.79857000     -2.48745000      2.77917000       1
I               3.62540000     -1.94460000     -0.73040100      53
H              -2.40406000      1.92790000      2.87097000       1
H              -1.26977000      0.74080400     -4.19943000       1
C              -2.26125000      0.45932100     -3.83748000       6
P              -2.46282000     -3.70410000     -0.71334300      15
I               2.06315000      1.03870000     -3.92634000      53
H              -2.40073000      0.53136100      3.99806000       1
H              -4.19491000      0.36108800      2.36252000       1
H               0.63645800     -3.85352000      2.84807000       1
H               2.39010000      3.54979000      2.26180000       1
H               2.27124000     -4.16557000      1.09513000       1
C               1.67361000     -3.54875000      3.00584000       6
H              -2.54214000     -0.52579300     -4.21667000       1
I              -4.26266000      2.49950000     -0.65419500      53
H               1.80549000     -2.25449000     -4.25841000       1
I              -2.80839000     -3.51572000      2.50645000      53
H               2.10504000     -3.97702000     -2.57379000       1
H               4.70405000      0.36108800      2.36252000       1
I               4.63631000      2.49950000     -0.65419500      53
H               2.21946000      4.73943000      1.09513000       1
I               0.26573000     -5.36723000     -0.69090600      53
N               2.54190000     -4.33420000      2.08395000       7
H              -3.02479000      2.41546000     -3.99916000       1
N               2.49013000      4.57079000      2.08395000       7
N              -3.24856000      1.45774000     -4.33633000       7
H               0.53674900     -3.52032000     -4.36441000       1
I              -5.27357000     -1.94460000     -0.73040100      53
H               2.15334000      3.73502000     -3.74560000       1
C               1.59869000     -3.30044000     -4.49588000       6
I              -0.07358760     -1.57960000      5.58918000      53
P              -2.51459000      5.20089000     -0.71334300      15
H               0.58468300      5.05148000      2.84807000       1
H               3.54484000     -4.08021000      2.19734000       1
H               1.98031000     -3.75804000      4.03316000       1
H               5.80690000      0.42596900      1.09713000       1
H               2.05326000      4.92797000     -2.57379000       1
H              -4.21110000      1.23169000     -4.01240000       1
N               2.38011000     -4.16218000     -3.55890000       7
N               5.68369000      0.14309800      2.09018000       7
P               1.87445000      0.92924900      5.76961000      15
I              -2.81720000     -3.83839000     -3.92257000      53
H               5.81698000     -0.88596400      2.15729000       1
H               4.68787000      1.23169000     -4.01240000       1
H               2.44188000     -5.35521000      2.26180000       1
H               3.49306000      4.82479000      2.19734000       1
C               1.62183000      5.35625000      3.00584000       6
H               3.39854000     -3.96793000     -3.64173000       1
N               2.32833000      4.74282000     -3.55890000       7
I              -0.62830200      2.89635000      5.70376000      53
H              -3.27867000      1.49944000     -5.37339000       1
I              -2.86017000      5.38927000      2.50645000      53
H               2.20511000     -5.16997000     -3.74560000       1
H               1.92854000      5.14695000      4.03316000       1
H               1.91114000     -3.52888000     -5.51739000       1
H               0.48497400      5.38468000     -4.36441000       1
H               3.34677000      4.93706000     -3.64173000       1
I              -2.86898000      5.06660000     -3.92257000      53
I              -0.70556800     -1.06253000     -6.95004000      53
H              -5.35413000     -4.08021000      2.19734000       1
P              -7.03669000      0.73417500     -0.71299600      15
H               6.61003000      0.47203100     -2.74633000       1
H               1.74679000      6.41755000      2.77917000       1
P              -2.58896000     -3.53812000      5.74905000      15
N               5.65040000      1.45774000     -4.33633000       7
I              -6.78910000      0.98338100      2.52545000      53
C               6.66093000      0.85244600      2.96666000       6
C               1.54691000      5.60456000     -4.49588000       6
H               6.49490000      1.92790000      2.87097000       1
I               4.37788000     -1.02483000      5.83223000      53
I              -4.52109000     -1.02483000      5.83223000      53
P               6.43615000     -3.70410000     -0.71334300      15
I               6.09057000     -3.51572000      2.50645000      53
P               1.76244000      0.87667100     -7.20532000      15
H               5.87417000      2.41546000     -3.99916000       1
H              -5.40590000      4.82479000      2.19734000       1
H               6.35682000     -0.52579300     -4.21667000       1
H               6.49823000      0.53136100      3.99806000       1
C               6.63772000      0.45932100     -3.83748000       6
I              -4.21088000     -6.40549000     -0.65419500      53
H              -5.50042000     -3.96793000     -3.64173000       1
H              -6.50886000      3.54979000      2.26180000       1
I               3.57362000      6.96039000     -0.73040100      53
I               3.79023000      3.42768000      6.00434000      53
I              -0.16969300      3.38996000     -7.12214000      53
H              -2.49203000      0.96132800      7.43698000       1
H              -2.35229000     -6.97709000      2.87097000       1
H              -6.62773000     -4.16557000      1.09513000       1
H               5.62029000      1.49944000     -5.37339000       1
H               1.85936000      5.37612000     -5.51739000       1
I              -6.83582000      1.03870000     -3.92634000      53
I               4.68808000     -6.40549000     -0.65419500      53
N              -6.35706000     -4.33420000      2.08395000       7
I              -0.83508300      7.91032000     -0.70159400      53
H              -7.10040000     -2.48745000      2.77917000       1
H               1.75371000      6.65051000     -4.25841000       1
H               7.67032000      0.59104400      2.64092000       1
N              -6.40884000      4.57079000      2.08395000       7
H              -2.97302000     -6.48953000     -3.99916000       1
I               6.08176000     -3.83839000     -3.92257000      53
I               8.11566000     -0.99467000     -0.70159400      53
H               1.26890000     -2.91535000      7.58098000       1
H              -6.67950000      4.73943000      1.09513000       1
P               6.38437000      5.20089000     -0.71334300      15
H              -5.55220000      4.93706000     -3.64173000       1
H              -6.79393000     -3.97702000     -2.57379000       1
P              -2.64073000      5.36687000      5.74905000      15
I              -0.57652700     -6.00864000      5.70376000      53
I               3.77487000     -1.59385000     -7.25061000      53
P               1.91405000     -8.17082000     -0.71299600      15
P              -2.62134000     -3.56096000     -7.18476000      15
I               6.03880000      5.38927000      2.50645000      53
N              -6.51886000     -4.16218000     -3.55890000       7
H              -6.74563000      3.73502000     -3.74560000       1
H              -7.09348000     -2.25449000     -4.25841000       1
I               2.16164000     -7.92161000      2.52545000      53
C              -7.22536000     -3.54875000      3.00584000       6
I              -5.10874000      3.42768000      6.00434000      53
H              -6.45709000     -5.35521000      2.26180000       1
H               7.62919000      0.74080400     -4.19943000       1
I              -5.32534000      6.96039000     -0.73040100      53
I               6.02999000      5.06660000     -3.92257000      53
H              -1.17687000     -8.31395000      2.64092000       1
H              -6.84570000      4.92797000     -2.57379000       1
H              -6.91865000     -3.75804000      4.03316000       1
N              -6.57063000      4.74282000     -3.55890000       7
C              -2.18626000     -8.05255000      2.96666000       6
H              -3.13376000      8.01903000      2.15729000       1
I               4.27781000      2.83519000     -7.36519000      53
I               3.84200000     -5.47732000      6.00434000      53
C              -2.80448000      1.18977000      8.45850000       6
I              -0.11791800     -5.51503000     -7.12214000      53
I              -5.12410000     -1.59385000     -7.25061000      53
I               2.11492000     -7.86629000     -3.92634000      53
H              -3.04029000     -8.47902000      1.09713000       1
P              -7.02451000      0.92924900      5.76961000      15
I              -4.62116000      2.83519000     -7.36519000      53
H              -2.23715000     -8.43296000     -2.74633000       1
C              -7.30028000     -3.30044000     -4.49588000       6
N              -3.19679000     -7.44725000     -4.33633000       7
N               1.29901000     -2.95705000      8.61804000       7
I               1.67859000      0.65181000      9.03180000      53
I              -0.12536300      7.32540000      5.58918000      53
P               6.31001000     -3.53812000      5.74905000      15
H              -6.69385000     -5.16997000     -3.74560000       1
H              -1.21800000     -8.16419000     -4.19943000       1
H               1.52278000     -1.99933000      8.95521000       1
H              -2.56726000      0.65675000     -8.92121000       1
P              -2.67312000      5.34404000     -7.18476000      15
H              -2.59768000      2.23572000      8.69596000       1
H              -1.00463000      0.52227000      9.31265000       1
I              -8.68501000      3.53776000     -0.69090600      53
H              -3.86642000      0.96988700      8.58997000       1
H              -2.19806000     -0.67976400      9.20877000       1
H               0.33647400     -3.18310000      8.94197000       1
C              -7.27713000      5.35625000      3.00584000       6
C              -2.20947000     -8.44567000     -3.83748000       6
N              -3.16350000     -8.76190000      2.09018000       7
H              -8.26251000     -3.85352000      2.84807000       1
H              -6.97043000      5.14695000      4.03316000       1
H              -2.34896000     -8.37363000      3.99806000       1
I              -5.05696000     -5.47732000      6.00434000      53
H              -6.98783000     -3.52888000     -5.51739000       1
H              -4.15932000     -7.67331000     -4.01240000       1
N              -2.02306000      0.32802700      9.39547000       7
H               5.92595000     -6.48953000     -3.99916000       1
H              -3.22689000     -7.40555000     -5.37339000       1
H              -2.59392000      8.37920000     -4.21667000       1
H               1.21713000      5.98965000      7.58098000       1
I              -9.68227000     -0.99467000     -0.70159400      53
H              -4.14314000     -8.54391000      2.36252000       1
H               1.95365000      3.96441000      8.73770000       1
I               9.11292000      3.53776000     -0.69090600      53
P               1.81050000      9.63917000     -0.71299600      15
N              -3.26705000      9.04809000      2.09018000       7
H               6.40693000      0.96132800      7.43698000       1
H               4.73964000     -7.67331000     -4.01240000       1
I              -2.28825000     -3.37609000      9.02803000      53
H              -3.14384000      9.33096000      1.09713000       1
H              -1.28042000      9.49604000      2.64092000       1
I              -0.73153200     -9.89966000     -0.70159400      53
H               6.54668000     -6.97709000      2.87097000       1
H               2.00244000     -3.95884000     -8.95631000       1
H               5.03255000      0.96988700      8.58997000       1
H              -7.15217000      6.41755000      2.77917000       1
P               1.92623000     -7.97574000      5.76961000      15
H               3.27780000     -3.67399000      8.75494000       1
H              -2.34071000      9.37702000     -2.74633000       1
P               6.25823000      5.36687000      5.74905000      15
H               4.75583000     -8.54391000      2.36252000       1
