200
cutoff_factor=1.20000000 nneightol=1.20000000 Lattice="28.28930000       0.00000000       0.00000000       0.00000000      28.57244000       0.00000000       0.00000000       0.00000000      28.09390000" Properties=species:S:1:pos:R:3:Z:I:1
I              -0.01893740     -1.58439000     -0.09889590      53
P              -0.14998800      1.22316000      1.42770000      15
H               3.00867000     -0.75711800      0.24481100       1
H              -0.31874900      0.00825501     -3.10383000       1
I              -2.02949000      2.37120000     -0.95262600      53
I               2.36650000      2.38146000     -0.14076900      53
H              -3.55798000     -1.05047000      0.68435700       1
H               3.16736000     -1.86209000     -1.16098000       1
C               3.67008000     -1.10889000     -0.54992000       6
H              -0.23439000      2.41200000     -3.12123000       1
H              -0.62117600     -2.84418000      2.77963000       1
H              -3.41193000     -2.06577000     -0.66702900       1
I              -2.81287000      0.17558000      2.95558000      53
C              -0.54014200      0.55841600     -4.02124000       6
H               4.00163000     -0.27280500     -1.16990000       1
I               1.66873000      0.10168900      3.86482000      53
N               0.12675000      1.89076000     -3.94592000       7
H               1.15769000      1.78373000     -3.85432000       1
N              -4.05472000     -1.73344000      0.07831640       7
H              -1.61661000      0.71547600     -4.12070000       1
H              -0.06800310     -4.21833000      1.76520000       1
P              -0.28368900     -4.04392000     -2.17116000      15
C              -0.52161100     -3.93015000      2.71614000       6
H              -0.15001200      0.02485080     -4.89074000       1
I              -0.44336500      4.10886000      2.92146000      53
H              -4.92027000     -0.27280500     -1.16990000       1
H              -4.33630000     -2.53127000      0.68296600       1
I              -2.89495000     -2.47158000     -3.36773000      53
N               4.86718000     -1.73344000      0.07831640       7
I               1.60007000     -2.56491000     -4.24387000      53
H               4.58559000     -2.53127000      0.68296600       1
H              -0.04394500      2.44598000     -4.80697000       1
C              -5.25182000     -1.10889000     -0.54992000       6
H               0.30944800      5.36433000      0.68296600       1
H              -1.49499000     -4.41096000      2.83761000       1
H               3.15076000      3.48464000      2.83761000       1
H               5.36391000     -1.05047000      0.68435700       1
H               1.31315000     -3.96284000      3.71460000       1
N               0.36803400     -4.38511000      3.81654000       7
H              -3.78352000      2.47905000      3.76860000       1
I               3.75051000      1.48116000     -4.33285000      53
H               5.50997000     -2.06577000     -0.66702900       1
H              -4.34415000      3.67727000      1.76520000       1
H              -5.91323000     -0.75711800      0.24481100       1
I              -2.27925000     -5.51413000     -0.14076900      53
H               1.23383000      5.82983000     -0.66702900       1
I               2.24665000     -5.52440000     -0.95262600      53
H              -0.03822110      0.03950730      6.06797000       1
I               3.83278000     -3.78674000      2.92146000      53
H               4.57775000      3.67727000      1.76520000       1
H              -5.75454000     -1.86209000     -1.16098000       1
H              -2.96300000      3.93275000      3.71460000       1
N               0.59102900      6.16216000      0.07831640       7
P               4.36206000      3.85168000     -2.17116000      15
H              -1.10879000      6.03351000     -1.16098000       1
H              -0.05124000     -4.11217000      4.72703000       1
C               4.12414000      3.96545000      2.71614000       6
P              -4.55983000      3.85168000     -2.17116000      15
N              -3.90811000      3.51049000      3.81654000       7
H               0.07237500      2.44353000      6.05929000       1
H               0.49262700     -5.41654000      3.76860000       1
I               1.75080000      5.42402000     -3.36773000      53
P               4.28720000     -1.41418000      5.06032000      15
I               6.10903000      0.17558000      2.95558000      53
C              -4.79776000      3.96545000      2.71614000       6
C              -0.60606400      6.78671000     -0.54992000       6
H               5.13838000      2.47905000      3.76860000       1
I              -5.17139000      1.48116000     -4.33285000      53
N              -0.39771500      0.56332600      6.89166000       7
H               1.08777000      6.84513000      0.68435700       1
I              -6.55540000      2.38146000     -0.14076900      53
I              -5.08912000     -3.78674000      2.92146000      53
H              -1.42823000      0.67644200      6.81047000       1
P              -4.63469000     -1.41418000      5.06032000      15
H               4.02458000      5.05142000      2.77963000       1
P               4.12627000     -1.41169000     -5.71643000      15
I              -1.99886000     -2.99093000      6.23674000      53
H              -0.51187000     -2.86444000     -6.59054000       1
N               5.01378000      3.51049000      3.81654000       7
C               0.28194000      1.88788000      6.97610000       6
H              -1.26748000      7.13848000      0.24481100       1
H              -5.77113000      3.48464000      2.83761000       1
I              -2.67607000      5.33069000     -4.24387000      53
I               6.02695000     -2.47158000     -3.36773000      53
I               6.89240000      2.37120000     -0.95262600      53
H               1.35601000      1.71948000      7.08218000       1
H              -4.32739000      3.78343000      4.72703000       1
H               4.04176000     -5.48360000     -3.12123000       1
H              -4.89732000      5.05142000      2.77963000       1
P              -4.79563000     -1.41169000     -5.71643000      15
H               4.59451000      3.78343000      4.72703000       1
I              -4.29508000      6.31121000     -0.09889590      53
I              -2.28900000     -0.30246000     -7.33099000      53
H              -0.27451600      7.62279000     -1.16990000       1
H              -0.22957900      0.00707619      7.75529000       1
I              -0.89524300     -6.41444000     -4.33285000      53
I               4.62681000      6.31121000     -0.09889590      53
P               4.12616000     -6.67244000      1.42770000      15
H              -4.88014000     -5.48360000     -3.12123000       1
H              -3.48806000     -6.11187000     -3.85432000       1
I               2.39002000     -2.91139000      7.10434000      53
H               5.95890000      3.93275000      3.71460000       1
I               0.22148000      3.58490000     -7.24815000      53
C              -0.12092900     -3.39879000     -7.45922000       6
H              -0.10900000      2.42223000      7.84479000       1
I              -7.25317000      0.10168900      3.86482000      53
H               4.01330000      2.61600000     -6.68004000       1
P               0.01105790      6.48142000      5.06032000      15
H               0.95313700     -3.56719000     -7.35315000       1
H              -0.64412100     -8.16840000     -1.16990000       1
I              -4.02140000      0.97597200      7.18718000      53
P              -4.79574000     -6.67244000      1.42770000      15
I               2.64689000      4.90467000      6.23674000      53
I               1.46328000     -7.72002000      2.95558000      53
H               4.23220000     -5.44962000     -4.80697000       1
H               7.30529000      0.71547600     -4.12070000       1
N               4.40290000     -6.00483000     -3.94592000       7
N              -4.51900000     -6.00483000     -3.94592000       7
I               2.24402000     -0.38200300     -8.19859000      53
H              -0.63244900     -5.27959000     -6.68004000       1
I               6.64264000     -5.51413000     -0.14076900      53
P              -0.14987900      6.48390000     -5.71643000      15
H              -4.68970000     -5.44962000     -4.80697000       1
H              -4.90860000      2.61600000     -6.68004000       1
H               2.65954000     -7.18012000     -4.12070000       1
I              -6.67524000     -5.52440000     -0.95262600      53
I               4.90050000      0.97597200      7.18718000      53
H               2.81465000      3.28537000     -7.62486000       1
I               1.83288000      8.07118000      2.95558000      53
H              -1.63708000     -8.65272000      0.24481100       1
I              -7.32182000     -2.56491000     -4.24387000      53
H              -7.76421000      1.78373000     -3.85432000       1
H              -0.33049500     -2.84314000     -8.37604000       1
I              -1.88613000      4.98421000      7.10434000      53
N              -0.80058500     -4.72334000     -7.54367000       7
P               8.77191000      1.22316000      1.42770000      15
H               0.71816100     -8.94606000      0.68435700       1
H               5.43383000     -6.11187000     -3.85432000       1
N               3.84517000      3.17225000     -7.54367000       7
I               8.90296000     -1.58439000     -0.09889590      53
C              -0.97566900     -9.00448000     -0.54992000       6
I              -8.94083000     -1.58439000     -0.09889590      53
H               7.42691000     -4.41096000      2.83761000       1
H              -1.83110000     -4.61023000     -7.62486000       1
H               8.60315000      0.00825501     -3.10383000       1
H              -3.32301000      4.32841000     -7.35315000       1
C               3.73600000     -7.33718000     -4.02124000       6
I              -2.97702000     -7.79391000      3.86482000      53
H               8.30072000     -2.84418000      2.77963000       1
H               4.34852000     -5.45206000      6.05929000       1
I               6.24583000      5.33069000     -4.24387000      53
I              -2.60742000      7.99729000      3.86482000      53
P              -9.07188000      1.22316000      1.42770000      15
H               4.13388000      5.03116000     -6.59054000       1
C               8.38175000      0.55841600     -4.02124000       6
H              -4.57338000     -5.45206000      6.05929000       1
H              -7.60875000     -3.96284000      3.71460000       1
H               3.95740000     -7.88734000     -3.10383000       1
P              -0.39181200      1.19475000     -9.37501000      15
I              -4.42427000     -4.31070000     -7.24815000      53
H               4.32700000      7.90385000     -3.10383000       1
H               8.68751000      2.41200000     -3.12123000       1
I               4.49763000     -4.31070000     -7.24815000      53
H              -4.78802000      5.03116000     -6.59054000       1
I              -7.17109000      5.42402000     -3.36773000      53
P              -0.11661400     -4.02062000      8.71889000      15
N              -5.07673000      3.17225000     -7.54367000       7
N               0.22142500     -9.62903000      0.07831640       7
H              -4.59490000      7.90385000     -3.10383000       1
C               8.40029000     -3.93015000      2.71614000       6
H              -7.68807000      5.82983000     -0.66702900       1
H               4.20466000      2.64843000     -8.36736000       1
H              -9.24065000      0.00825501     -3.10383000       1
C              -4.39708000      4.49681000     -7.45922000       6
P               8.63821000     -4.04392000     -2.17116000      15
I               6.92304000     -2.99093000      6.23674000      53
C               4.52482000      4.49681000     -7.45922000       6
H              -4.96450000     -7.88734000     -3.10383000       1
N              -8.79515000      1.89076000     -3.94592000       7
C              -5.18589000     -7.33718000     -4.02124000       6
I               8.47853000      4.10886000      2.92146000      53
H              -0.44109100     -5.24716000     -8.36736000       1
I               6.63290000     -0.30246000     -7.33099000      53
H              -1.47839000     -9.75768000     -1.16098000       1
H               7.81311000      6.03351000     -1.16098000       1
H              -3.28974000     -6.17612000      7.08218000       1
H              -4.71724000      2.64843000     -8.36736000       1
H               8.85389000     -4.21833000      1.76520000       1
H              -9.15629000      2.41200000     -3.12123000       1
I               0.25474500     -6.91963000      7.18718000      53
H               3.02914000      8.61107000     -4.12070000       1
H               0.86422100     -9.96137000     -0.66702900       1
H               8.77189000      0.02485080     -4.89074000       1
N               9.04865000      1.89076000     -3.94592000       7
I              -6.53188000     -2.91139000      7.10434000      53
H              -8.98990000     -4.21833000      1.76520000       1
I              -6.27501000      4.90467000      6.23674000      53
H               4.12613000     -7.87075000     -4.89074000       1
H               7.49366000      0.67644200      6.81047000       1
H              -8.61245000      5.36433000      0.68296600       1
