200
cutoff_factor=1.20000000 nneightol=1.20000000 Lattice="28.27285000       0.00000000       0.00000000       0.00000000      29.84089000       0.00000000       0.00000000       0.00000000      28.15225000" Properties=species:S:1:pos:R:3:Z:I:1
I              -0.52948200      1.64190000      0.36425200      53
P               1.59400000      0.33123600     -1.64875000      15
H               0.05761720     -2.45335000      1.15593000       1
H               1.14030000     -1.51013000      1.98954000       1
I               0.13735600     -2.54652000     -1.43155000      53
N               0.45518900     -2.28052000      2.10419000       7
H              -1.12543000     -1.06392000      2.78745000       1
H              -3.10969000      0.71101400     -0.78502900       1
I               3.40685000     -0.54188000      0.83404300      53
C              -0.59381200     -1.95886000      3.11710000       6
H              -0.57094100      3.77717000     -1.17197000       1
H               1.01487000     -3.12338000      2.35525000       1
C              -4.09052000      0.34437900     -1.09251000       6
I              -0.35909900      1.08149000     -4.11478000      53
H              -4.23521000     -0.68572200     -0.76312800       1
H               2.59458000      2.37337000      2.60429000       1
H              -1.27881000     -2.80669000      3.18982000       1
H              -0.10258400     -1.77914000      4.07562000       1
P              -2.10071000      2.88362000      2.83740000      15
H              -3.42711000     -0.21580300     -3.00982000       1
I               3.01415000      3.13472000     -2.02867000      53
N              -4.16111000      0.37630300     -2.58416000       7
N              -0.55241000      4.48395000     -1.93669000       7
H               0.16797400      4.18152000     -2.61701000       1
H              -4.88025000      0.98610100     -0.69498600       1
I              -3.81707000      0.22902400      3.31784000      53
H               2.77024000     -4.23061000     -0.68744900       1
I              -3.93250000     -3.33913000      0.45729400      53
H              -4.04842000      1.35045000     -2.93669000       1
H               4.03235000      1.39735000      3.05789000       1
C               3.40154000      2.24606000      3.32947000       6
H              -1.47671000      4.47828000     -2.41328000       1
I               0.07026030      1.98644000      4.95455000      53
I               3.67631000     -0.99219600     -3.76728000      53
H               0.21685200     -0.96778700     -5.47601000       1
P              -2.10966000     -4.87981000     -1.66206000      15
H               1.53895000     -1.88769000     -5.07029000       1
H               2.99779000      2.11157000      4.33492000       1
H               3.56235000     -3.82573000     -2.24632000       1
H              -0.48486300     -3.17485000     -4.74121000       1
H              -5.08285000      0.01628480     -2.91370000       1
H               0.77231100      5.77850000     -0.92655000       1
C               3.53495000     -4.52654000     -1.40898000       6
I              -4.38725000      3.93624000      0.77735600      53
C              -0.20582900      5.83703000     -1.40898000       6
N               0.75990100     -1.81398000     -5.75131000       7
I               3.09202000     -4.63748000      2.50887000      53
H               6.10353000      0.98610100     -0.69498600       1
H              -0.97054000      6.13296000     -0.68744900       1
I              -0.64876200      5.72609000      2.50887000      53
I              -3.41240000     -3.29998000     -4.12157000      53
P               5.25320000     -2.27387000      2.80738000      15
H               4.68961000      3.63648000      2.39599000       1
N               4.24256000      3.47243000      3.32482000       7
H               4.51309000     -4.58506000     -0.92655000       1
I               3.44159000     -1.21073000      5.38177000      53
C              -0.08111890     -3.04035000     -5.74666000       6
I              -0.64647300     -6.42733000      0.77735600      53
I              -3.78185000      3.86641000     -3.69435000      53
H               5.90093000      0.01628480     -2.91370000       1
H               3.69951000      4.31863000      3.60011000       1
H               2.26407000     -5.88529000     -2.41328000       1
P              -5.73058000     -2.27387000      2.80738000      15
H               2.48154000      2.27046000     -5.88630000       1
H               6.74857000     -0.68572200     -0.76312800       1
H              -0.17842700      6.53783000     -2.24632000       1
N               3.18837000     -5.87962000     -1.93669000       7
H               1.20695000     -1.64993000     -6.68013000       1
C               6.89326000      0.34437900     -1.09251000       6
H               3.65776000      3.29801000     -5.00050000       1
P              -1.97024000      2.80328000     -6.26874000      15
H              -0.88808100     -2.91305000     -6.47183000       1
H               0.54969200     -3.88906000     -6.01824000       1
H               5.02161000      3.39873000      4.00583000       1
N               6.82267000      0.37630300     -2.58416000       7
I              -0.74619600     -1.94243000      7.04746000      53
H               3.16984000     -6.58639000     -1.17197000       1
C               3.16653000      3.11829000     -5.95903000       6
H              -3.59237000     -0.89562300      6.45911000       1
I              -0.04106470     -6.49715000     -3.69435000      53
P               1.37299000      0.40660600      7.41406000      15
H              -2.55339000     -6.72708000      2.39599000       1
I              -4.11944000     -3.99566000      4.96134000      53
I              -7.57693000     -0.54188000      0.83404300      53
H               6.93536000      1.35045000     -2.93669000       1
H              -6.29417000      3.63648000      2.39599000       1
P               5.13333000      5.48375000     -1.66206000      15
I               6.59653000      3.93624000      0.77735600      53
H              -6.95143000      1.39735000      3.05789000       1
H               3.90875000     -6.18204000     -2.61701000       1
I              -4.13142000      0.43967100     -6.56726000      53
I               3.31050000      7.02444000      0.45729400      53
I               7.05128000     -3.33913000      0.45729400      53
I              -3.82481000      4.29422000      5.30885000      53
I              -0.05673000      5.30617000     -5.75828000      53
H               3.17502000     -3.72669000      6.13943000       1
H              -3.54349000     -6.04494000      3.60011000       1
I               7.16671000      0.22902400      3.31784000      53
H               0.05555140      5.07061000      6.06630000       1
H               2.63491000      4.01323000     -6.28867000       1
H               7.87409000      0.71101400     -0.78502900       1
H              -5.96217000      3.39873000      4.00583000       1
H              -6.47069000     -4.58506000     -0.92655000       1
H              -3.93877000      1.46068000      6.82980000       1
I              -0.08403000     -6.06934000      5.30885000      53
H              -2.72591000      7.24019000      2.35525000       1
H               7.55667000     -0.21580300     -3.00982000       1
P               1.64007000     -7.47994000      2.83740000      15
P              -5.85045000      5.48375000     -1.66206000      15
N              -3.00044000     -6.89113000      3.32482000       7
H               2.14059000     -5.06086000      6.16243000       1
N              -6.74122000      3.47243000      3.32482000       7
I              -7.30747000     -0.99219600     -3.76728000      53
H              -1.60019000      5.30270000      6.16243000       1
H              -2.22139000     -6.96483000      4.00583000       1
N              -4.31275000     -0.59320200      7.13944000       7
H               4.77522000      1.95377000     -6.72087000       1
H              -5.23705000     -0.59886900      6.66284000       1
I               3.68405000     -5.05739000     -5.75828000      53
C              -7.58224000      2.24606000      3.32947000       6
N               3.06233000     -4.70085000      6.49197000       7
P               5.40041000     -2.40279000     -6.23873000      15
N               4.21553000      2.79663000     -6.97193000       7
I              -4.22885000     -7.22885000     -2.02867000      53
N              -0.67845500      5.66272000      6.49197000       7
H              -7.42143000     -3.82573000     -2.24632000       1
I               3.12356000      6.36791000      4.96134000      53
C              -3.96617000      0.75988000      7.66715000       6
P               1.51242000      8.08970000      2.80738000      15
H              -2.98803000      0.70135500      8.14957000       1
P              -5.58337000     -2.40279000     -6.23873000      15
I              -3.60342000      7.81704000     -1.43155000      53
I              -0.17215700      1.73802000     -8.61883000      53
I              -7.96963000      3.13472000     -2.02867000      53
H              -3.68316000      7.91022000      1.15593000       1
H               5.74673000     -0.59886900      6.66284000       1
C              -7.44883000     -4.52654000     -1.40898000       6
I               3.62001000      2.73990000      7.64457000      53
H               3.79633000     -5.29295000      6.06630000       1
I               3.11387000     -1.35018000     -8.29877000      53
I               7.20193000      3.86641000     -3.69435000      53
N              -3.28559000      8.08304000      2.10419000       7
I               3.83060000      7.06359000     -4.12157000      53
H              -0.56576300      6.63687000      6.13943000       1
P              -2.16634000     -4.74591000      7.42737000      15
H              -8.38920000      2.37337000      2.60429000       1
H              -4.33128000     -1.29997000      7.90415000       1
H               3.81796000      2.62380000     -7.92019000       1
H              -7.28427000      4.31863000      3.60011000       1
I               7.57138000     -3.29998000     -4.12157000      53
H              -8.21354000     -4.23061000     -0.68744900       1
I               3.21130000     -8.72166000      0.36425200      53
H               4.90064000      3.56702000     -7.08658000       1
H              -7.98599000      2.11157000      4.33492000       1
I              -7.54219000     -1.21073000      5.38177000      53
H              -6.20856000      1.95377000     -6.72087000       1
I               6.86434000     -3.99566000      4.96134000      53
H              -3.58524000     -7.06556000     -5.00050000       1
H              -3.19109000      6.47450000     -6.01824000       1
H              -2.60048000      8.85344000      1.98954000       1
H              -7.32602000      3.29801000     -5.00050000       1
H              -1.13947000     -9.37746000     -0.69498600       1
H              -0.30763900     -9.01311000     -2.93669000       1
I              -7.89176000     -4.63748000      2.50887000      53
I               6.85236000      0.43967100     -6.56726000      53
H              -0.75255800      4.60069000      8.31300000       1
P              -9.38978000      0.33123600     -1.64875000      15
C              -3.84146000     -8.11750000      3.32947000       6
H              -4.22564000      7.18872000     -4.74121000       1
H              -4.64842000     -7.99020000      2.60429000       1
H               2.34319000     -4.09105000      8.38114000       1
H              -5.01959000      7.55688000      3.18982000       1
H              -4.73088000      1.05581000      8.38868000       1
H               0.63109000     -9.65255000     -0.78502900       1
I              -0.44984200      1.94729000      9.53342000      53
H              -7.07503000     -6.18204000     -2.61701000       1
P               8.88307000      2.88362000      2.83740000      15
C              -0.60786100      5.63080000      7.98361000       6
N               6.67103000     -0.59320200      7.13944000       7
C               3.13292000     -4.73277000      7.98361000       6
H               7.39141000     -0.89562300      6.45911000       1
I              -0.33393300      9.82169000      0.83404300      53
I               7.15897000      4.29422000      5.30885000      53
H               7.04501000      1.46068000      6.82980000       1
N              -7.79541000     -5.87962000     -1.93669000       7
C              -4.33459000      8.40471000      3.11710000       6
P               1.77054000     -7.56028000     -6.26874000      15
H              -6.08314000      3.56702000     -7.08658000       1
H              -3.21065000     -8.96621000      3.05789000       1
H              -4.60809000     -6.35034000     -6.28867000       1
C              -3.82190000      7.32321000     -5.74666000       6
C              -0.34973700    -10.01920000     -1.09251000       6
H              -2.34236000     -6.79655000     -7.08658000       1
I              -0.07580930     -5.82830000     -8.24208000      53
I               6.75493000     -7.22885000     -2.02867000      53
I              -0.06446850      9.37137000     -3.76728000      53
N              -6.76825000      2.79663000     -6.97193000       7
H              -2.20183000      8.47588000     -5.07029000       1
H               5.96419000      7.55688000      3.18982000       1
I              -3.81659000      4.53527000     -8.24208000      53
