200
cutoff_factor=1.20000000 nneightol=1.20000000 Lattice="28.68120000       0.00000000       0.00000000       0.00000000      28.67420000       0.00000000       0.00000000       0.00000000      28.30583000" Properties=species:S:1:pos:R:3:Z:I:1
I              -1.30597000      0.36421100      0.17611700      53
H              -0.22439000     -1.82374000     -0.49220100       1
N               0.09506750     -2.79765000     -0.69024700       7
P               0.57962200      2.57780000     -1.29934000      15
H               0.63009000     -3.10858000      0.14577400       1
I               3.18365000      1.05154000     -0.20429200      53
H               1.85021000     -2.23327000     -1.71967000       1
H               0.39596100      1.59604000      2.95312000       1
C               0.95713400     -2.83310000     -1.90927000       6
H              -0.75278000     -3.37786000     -0.80825400       1
H               0.39085700     -2.41767000     -2.74481000       1
H               1.23321000     -0.65160300      3.43201000       1
H              -0.84895800      0.59689100      3.77438000       1
C               0.11829600      1.09292000      3.88200000       6
I               0.68104700      0.79770300     -4.01368000      53
I               2.27414000     -2.72682000      2.23670000      53
P              -3.96212000     -1.13554000      1.29820000      15
N               1.14990000      0.05892890      4.18685000       7
H              -2.57477000     -0.50020800     -3.47515000       1
H              -2.76349000      1.26681000     -3.23654000       1
I               0.29022600      4.36548000      1.33492000      53
H               1.22783000     -3.87021000     -2.10929000       1
H              -3.93537000      0.13015600     -2.49116000       1
C              -3.28876000      0.31714300     -3.35074000       6
H              -2.80695000      3.61888000      1.35761000       1
H               2.09199000      0.48449000      4.30506000       1
I              -2.14711000     -3.19021000      2.94228000      53
I              -3.75184000     -3.03082000     -1.25249000      53
H               0.09434230      1.80367000      4.71026000       1
I              -2.07590000      4.02459000     -2.43874000      53
H              -4.18851000      2.94271000      0.63400700       1
H               0.93012100     -0.45193200      5.06471000       1
H              -3.24189000      4.02923000     -0.20116700       1
P               4.95124000     -1.13554000      1.29820000      15
N              -3.61807000      3.80851000      0.74883600       7
H               4.97798000      0.13015600     -2.49116000       1
H               4.72484000      2.94271000      0.63400700       1
I              -4.17425000      0.68985300      3.92485000      53
I              -5.72971000      1.05154000     -0.20429200      53
I               2.40688000      4.69773000     -2.76785000      53
I              -1.36592000     -3.24873000     -4.99557000      53
I               5.16152000     -3.03082000     -1.25249000      53
H               4.07261000      1.13847000     -4.50015000       1
N              -4.13829000      0.39117000     -4.57432000       7
I               4.73911000      0.68985300      3.92485000      53
P               0.44749600     -4.85024000      3.92237000      15
H               3.62664000      5.08847000      0.56804200       1
H               0.96256400      3.16054000     -5.40108000       1
H               4.28030000     -0.51741500     -4.72779000       1
H              -3.54213000      0.54625300     -5.41789000       1
C               5.62460000      0.31714300     -3.35074000       6
H              -3.75132000     -5.22099000      1.32641000       1
N               5.29529000      3.80851000      0.74883600       7
H               4.07731000      4.65428000      2.24987000       1
N               4.77507000      0.39117000     -4.57432000       7
H              -4.63305000     -0.51741500     -4.72779000       1
P               0.47993800     -1.23777000     -6.54342000      15
H              -4.84075000      1.13847000     -4.50015000       1
I               3.12257000     -2.64829000     -5.37462000      53
C               4.45447000      4.93005000      1.26311000       6
C              -4.45888000      4.93005000      1.26311000       6
I               0.37708700     -6.68151000      1.33492000      53
H              -3.57457000     -3.06622000      5.04790000       1
H               5.67146000      4.02923000     -0.20116700       1
H               3.71350000     -5.95852000      0.56804200       1
I              -1.48523000      4.18578000      5.47022000      53
H               6.14986000      1.26681000     -3.23654000       1
I               0.64860500     -2.81477000      6.45211000      53
H              -4.83605000      4.65428000      2.24987000       1
H              -3.83818000      5.82600000      1.32641000       1
H               6.10641000      3.61888000      1.35761000       1
H               6.33859000     -0.50020800     -3.47515000       1
P               0.36063500      6.19675000      3.92237000      15
P              -3.86465000     -4.86199000     -3.93011000      15
H              -5.28672000      5.08847000      0.56804200       1
I               2.49374000     -6.34926000     -2.76785000      53
N               1.18234000      3.67140000     -6.27895000       7
H               5.16203000     -5.22099000      1.32641000       1
I              -6.63922000     -2.72682000      2.23670000      53
H               1.14096000      7.17678000     -2.10929000       1
H              -7.06315000     -2.23327000     -1.71967000       1
I               3.00326000      4.78623000      5.09118000      53
H               4.04017000     -2.47400000      5.96564000       1
I               7.60739000      0.36421100      0.17611700      53
C              -4.37202000     -6.11694000      1.26311000       6
H               5.37123000      0.54625300     -5.41789000       1
I              -1.98904000     -7.02240000     -2.43874000      53
H              -3.15503000     -7.01776000     -0.20116700       1
H               2.12443000      4.09696000     -6.16073000       1
C               4.54133000     -6.11694000      1.26311000       6
H               1.26566000      2.96087000     -7.03378000       1
H              -0.83964100      7.66913000     -0.80825400       1
I              -2.11467000      0.42226300     -7.52352000      53
H               5.07517000      5.82600000      1.32641000       1
H               0.12678500      5.41615000     -5.75553000       1
N              -4.17073000     -3.22130000      5.89147000       7
H              -5.19986000     -5.95852000      0.56804200       1
H              -0.81651600      4.20936000     -6.69141000       1
H               4.16417000     -6.39271000      2.24987000       1
H               0.54323000      7.93841000      0.14577400       1
H               5.33878000     -3.06622000      5.04790000       1
H              -2.72009000     -7.42811000      1.35761000       1
P               5.04870000     -4.86199000     -3.93011000      15
I               6.76624000     -3.19021000      2.94228000      53
H               0.21364500     -5.63084000     -5.75553000       1
P              -3.98396000      2.57253000      6.53568000      15
H              -6.82137000      0.48449000      4.30506000       1
N              -3.53121000     -7.23848000      0.74883600       7
H              -4.87319000     -2.47400000      5.96564000       1
C               0.15073900      4.70539000     -6.58379000       6
H              -2.79594000     -2.34566000      7.22925000       1
I               2.37444000      1.08526000      7.69794000      53
N               4.74263000     -3.22130000      5.89147000       7
H               4.24786000     -4.12989000      5.73800000       1
H              -4.74919000     -6.39271000      2.24987000       1
N               0.00820685      8.24934000     -0.69024700       7
I               6.83746000      4.02459000     -2.43874000      53
I              -2.10834000      0.41212000      8.02705000      53
P              -3.95151000      6.18500000     -3.93011000      15
I              -5.79079000     -2.64829000     -5.37462000      53
H              -7.68014000     -0.65160300      3.43201000       1
H              -4.66550000     -4.12989000      5.73800000       1
C               0.87027400      8.21389000     -1.90927000       6
I              -6.50648000      4.69773000     -2.76785000      53
C              -3.32120000     -3.29533000      7.11505000       6
H              -2.60721000     -4.11268000      6.99064000       1
P               4.92940000      2.57253000      6.53568000      15
I               2.30658000      0.88565400     -8.22909000      53
P               0.66648300     -8.46919000     -1.29934000      15
I               3.09012000     -6.26076000      5.09118000      53
C              -7.95622000     -2.83310000     -1.90927000       6
I              -2.23397000      7.85678000      2.94228000      53
P              -8.33373000      2.57780000     -1.29934000      15
N              -7.76346000      0.05892890      4.18685000       7
H              -8.28327000     -3.10858000      0.14577400       1
P               4.96184000      6.18500000     -3.93011000      15
I              -4.14180000      4.30233000     -6.54094000      53
H              -7.68553000     -3.87021000     -2.10929000       1
H               8.16058000     -3.37786000     -0.80825400       1
I              -1.39836000     -6.86121000      5.47022000      53
I               2.18728000      8.32017000      2.23670000      53
H               8.68897000     -1.82374000     -0.49220100       1
H               8.06440000      0.59689100      3.77438000       1
I              -3.83870000      8.01617000     -1.25249000      53
N               5.38215000     -7.23848000      0.74883600       7
H               0.30399600      8.62932000     -2.74481000       1
H               5.75832000     -7.01776000     -0.20116700       1
H              -4.10165000     -8.10428000      0.63400700       1
C               0.23759900     -6.34160000     -6.58379000       6
H               1.76335000      8.81372000     -1.71967000       1
H               0.42840300      5.20851000     -7.51267000       1
I              -5.91009000      4.78623000      5.09118000      53
H               1.10852000      3.56430000      8.35650000       1
H              -8.51740000      1.59604000      2.95312000       1
I               4.77155000      4.30233000     -6.54094000      53
I              -8.23231000      0.79770300     -4.01368000      53
H               0.27155400      5.01684000      7.72098000       1
P               0.54718000     -1.03468000      9.16645000      15
H              -0.31125100      9.22325000     -0.49220100       1
H              -8.52250000     -2.41767000     -2.74481000       1
N              -8.81829000     -2.79765000     -0.69024700       7
H              -9.13775000     -1.82374000     -0.49220100       1
I              -1.45278000      7.79826000     -4.99557000      53
I              -6.41962000     -6.34926000     -2.76785000      53
H               4.81170000     -8.10428000      0.63400700       1
N               9.00842000     -2.79765000     -0.69024700       7
H              -7.98324000     -0.45193200      5.06471000       1
H               0.51526400     -5.83848000     -7.51267000       1
H               2.21129000     -6.95003000     -6.16073000       1
H              -3.96782000     -3.48232000      7.97463000       1
I               5.07466000      8.01617000     -1.25249000      53
H              -0.72965500     -6.83763000     -6.69141000       1
H               1.04942000     -7.88645000     -5.40108000       1
I               7.54743000     -3.24873000     -4.99557000      53
C               5.59216000     -3.29533000      7.11505000       6
H               4.19661000     -2.78024000     -8.21592000       1
I               0.40952900     -3.06904000     -9.13087000      53
C              -8.79506000      1.09292000      3.88200000       6
C               0.83783100      4.60141000      8.55652000       6
H               6.11742000     -2.34566000      7.22925000       1
I              -8.62313000      4.36548000      1.33492000      53
H               6.19327000     -7.42811000      1.35761000       1
N               1.26920000     -7.37559000     -6.27895000       7
H               0.35841500     -6.03015000      7.72098000       1
H              -4.71675000     -2.78024000     -8.21592000       1
C               9.03165000      1.09292000      3.88200000       6
H               9.30932000      1.59604000      2.95312000       1
H               4.16100000      6.91710000      5.73800000       1
H               0.48282200     -9.45095000      2.95312000       1
P               9.49298000      2.57780000     -1.29934000      15
I              -5.82323000     -6.26076000      5.09118000      53
H              -3.71888000     -1.60851000     -9.13938000       1
H               9.30421000     -2.41767000     -2.74481000       1
H               4.94554000     -3.48232000      7.97463000       1
H               9.54345000     -3.10858000      0.14577400       1
H              -6.78893000      4.09696000     -6.16073000       1
H              -7.95079000      3.16054000     -5.40108000       1
H              -3.66143000      7.98077000      5.04790000       1
I               7.42813000      4.18578000      5.47022000      53
I               6.79869000      0.42226300     -7.52352000      53
