200
cutoff_factor=1.20000000 nneightol=1.20000000 Lattice="28.62077000       0.00000000       0.00000000       0.00000000      28.96920000       0.00000000       0.00000000       0.00000000      27.54583000" Properties=species:S:1:pos:R:3:Z:I:1
H               0.01914940     -0.77542500      0.56197900       1
I               0.29167700      1.84924000      0.32845700      53
N              -0.12634900     -1.75180000      0.89206000       7
H              -1.14279000     -1.96298000      0.89625600       1
H               0.22032400     -1.78534000      1.87237000       1
C               0.62100000     -2.72749000      0.04738030       6
H               0.25747200     -2.64424000     -0.97902400       1
H               1.68440000     -2.48217000      0.09577000       1
H              -2.97798000      1.72119000     -0.44967100       1
P               0.37997900      1.95108000     -2.85910000      15
I               2.17548000     -0.70281900     -2.88898000      53
H              -3.01317000      1.77052000      1.34072000       1
I              -2.31024000      0.25626900     -2.97551000      53
H               0.44110700     -3.73185000      0.43770100       1
C              -3.61892000      1.73291000      0.43383800       6
P               0.31865800      2.05649000      3.59243000      15
I               2.14209000     -0.63393400      3.58633000      53
I              -2.26251000      0.16624700      3.66039000      53
H              -4.27533000      0.85989500      0.44471800       1
I              -3.85312000     -2.41180000      0.33157400      53
H               4.66138000      0.85989500      0.44471800       1
H               3.89617000      2.99980000     -0.47816400       1
H               3.85323000      3.02371000      1.22218000       1
H               0.40978000      5.23690000      0.43770100       1
N              -4.46147000      2.96056000      0.38615100       7
N               4.47524000      2.96056000      0.38615100       7
I              -1.39615000     -4.28379000     -2.97745000      53
H               1.27582000     -2.13203000     -4.81988000       1
H              -3.88715000      3.82409000      0.40121100       1
P              -4.02452000     -2.37219000     -2.86875000      15
C               5.31779000      1.73291000      0.43383800       6
I               3.03524000      3.82693000     -2.77268000      53
I               5.08359000     -2.41180000      0.33157400      53
I              -1.42747000      4.68496000     -2.97745000      53
I              -1.54934000     -4.34716000      3.48804000      53
H              -5.04054000      2.99980000     -0.47816400       1
H               0.14309200     -3.35664000     -4.84306000       1
I               2.88890000      3.94492000      3.38815000      53
P              -4.14214000     -2.39871000      3.61940000      15
I              -1.58066000      4.62160000      3.48804000      53
H              -5.08348000      3.02371000      1.22218000       1
H              -3.23337000      1.79205000     -4.80234000       1
H              -0.47734500     -1.95739000      5.78971000       1
P               4.91219000     -2.37219000     -2.86875000      15
N               0.79218700     -2.81014000     -5.44907000       7
H               5.95873000      1.72119000     -0.44967100       1
H              -0.68404600     -1.43001000     -6.05503000       1
C               0.58967300      6.24127000      0.04738030       6
H               5.92354000      1.77052000      1.34072000       1
H               5.04956000      3.82409000      0.40121100       1
I               0.33084800      1.99706000     -6.03858000      53
H               0.22614400      6.32451000     -0.97902400       1
H              -3.85582000     -5.14466000      0.40121100       1
P               4.79457000     -2.39871000      3.61940000      15
H               0.85685700     -3.15326000      5.69622000       1
I               3.06657000     -5.14183000     -2.77268000      53
H               1.65307000      6.48659000      0.09577000       1
I               2.92022000     -5.02384000      3.38815000      53
C               0.04682590     -2.09328000     -6.52343000       6
C               0.11182300     -2.68950000      6.34685000       6
H               1.49888000     -3.44253000     -5.85779000       1
N              -3.79470000      2.46098000     -5.37458000       7
I               0.40064100      1.99845000      6.78244000      53
H               4.46835000      2.90626000     -4.71687000       1
H              -4.46836000      2.90626000     -4.71687000       1
I               0.32300500     -7.11952000      0.32845700      53
H              -1.17411000      7.00577000      0.89625600       1
H               3.92750000     -5.96895000     -0.47816400       1
H               3.77990000      0.99341900     -6.04081000       1
H               3.88455000     -5.94504000      1.22218000       1
H               4.13075000      1.69134000      5.67574000       1
H               5.08089000     -5.14466000      0.40121100       1
I               6.62647000      0.25626900     -2.97551000      53
N              -0.15767600      7.21696000      0.89206000       7
H              -3.16735000      3.19238000     -5.74537000       1
H               0.76184400     -1.51674000     -7.11486000       1
H               1.45032000     -1.25088000      7.08006000       1
H              -3.58853000      3.00876000      5.71057000       1
I              -6.76123000     -0.70281900     -2.88898000      53
H               0.11176500      5.61211000     -4.84306000       1
H               0.18899600      7.18342000      1.87237000       1
N              -4.43014000     -6.00819000      0.38615100       7
N               4.50657000     -6.00819000      0.38615100       7
I              -5.90147000      3.82693000     -2.77268000      53
P               0.41130600     -7.01768000     -2.85910000      15
H              -2.85149000      1.08297000      6.96764000       1
I               6.67420000      0.16624700      3.66039000      53
H              -4.80596000      1.69134000      5.67574000       1
I              -3.88445000      6.55695000      0.33157400      53
H              -0.53913800     -3.44983000      6.78461000       1
H              -7.25231000     -2.48217000      0.09577000       1
H               5.70334000      1.79205000     -4.80234000       1
H              -0.45559200     -2.83416000     -7.14969000       1
I              -6.79462000     -0.63393400      3.58633000      53
N               0.82296400     -1.98228000      7.45085000       7
I              -4.18570000     -2.52705000     -6.04299000      53
P               0.34998600     -6.91227000      3.59243000      15
H              -5.00921000     -5.96895000     -0.47816400       1
N               5.14201000      2.46098000     -5.37458000       7
H              -2.94665000     -7.24757000     -0.44967100       1
H              -5.05216000     -5.94504000      1.22218000       1
H              -2.98184000     -7.19823000      1.34072000       1
I              -6.04781000      3.94492000      3.38815000      53
H              -5.15681000      0.99341900     -6.04081000       1
C              -4.30354000      2.43222000      6.30200000       6
C               4.43086000      1.75375000     -6.47857000       6
C              -4.50584000      1.75375000     -6.47857000       6
H               7.79392000     -1.96298000      0.89625600       1
C              -3.58759000     -7.23585000      0.43383800       6
I               4.75101000     -2.52705000     -6.04299000      53
H              -3.76081000      1.29000000     -7.12921000       1
H               0.82553000      5.81550000      5.69622000       1
H               1.46755000      5.52622000     -5.85779000       1
C               4.63317000      2.43222000      6.30200000       6
H              -0.01217810      8.19333000      0.56197900       1
I              -3.98819000     -2.44620000      6.78685000      53
H               0.14930500     -1.53699000      8.10856000       1
P              -4.05585000      6.59656000     -2.86875000      15
N               0.76085900      6.15862000     -5.44907000       7
I              -5.87014000     -5.14183000     -2.77268000      53
I               5.05226000      6.55695000      0.33157400      53
N              -3.55818000      1.71536000      7.37635000       7
H               5.34818000      3.00876000      5.71057000       1
H               3.84170000      2.48586000     -7.03572000       1
H               3.90229000      3.09549000      6.77040000       1
H               1.24449000      6.83672000     -4.81988000       1
I              -6.01648000     -5.02384000      3.38815000      53
H               1.38430000     -2.65120000      8.02308000       1
P              -4.17347000      6.57004000      3.61940000      15
P               4.88086000      6.59656000     -2.86875000      15
H              -3.13602000     -5.77638000     -5.74537000       1
H               5.76936000      3.19238000     -5.74537000       1
I               4.94851000     -2.44620000      6.78685000      53
C              -8.31571000     -2.72749000      0.04738030       6
H              -0.57046600      5.51892000      6.78461000       1
I              -8.64503000      1.84924000      0.32845700      53
H              -4.43703000     -6.06249000     -4.71687000       1
P               4.76324000      6.57004000      3.61940000      15
H               4.49967000     -6.06249000     -4.71687000       1
H              -3.07455000      2.39347000      8.00555000       1
H               5.17590000      1.29000000     -7.12921000       1
C               0.08049560      6.27925000      6.34685000       6
H              -8.91756000     -0.77542500      0.56197900       1
H              -5.03442000      3.09549000      6.77040000       1
H              -3.55720000     -5.95999000      5.71057000       1
H               8.95586000     -0.77542500      0.56197900       1
C               5.34912000     -7.23585000      0.43383800       6
I               2.14415000      8.26594000     -2.88898000      53
N               8.81036000     -1.75180000      0.89206000       7
H              -5.09501000      2.48586000     -7.03572000       1
H              -8.71639000     -1.78534000      1.87237000       1
H              -4.20728000      1.16886000      7.98236000       1
H              -0.50867300      7.01136000      5.78971000       1
H              -8.67924000     -2.64424000     -0.97902400       1
H              -4.24400000     -8.10886000      0.44471800       1
I               7.54056000     -4.28379000     -2.97745000      53
H              -3.20204000     -7.17670000     -4.80234000       1
P              -8.55673000      1.95108000     -2.85910000      15
I               0.36217500     -6.97170000     -6.03858000      53
N              -3.76338000     -6.50778000     -5.37458000       7
I               7.38737000     -4.34716000      3.48804000      53
N              -9.06306000     -1.75180000      0.89206000       7
N               5.37853000      1.71536000      7.37635000       7
H              -8.49560000     -3.73185000      0.43770100       1
H              -7.66089000     -2.13203000     -4.81988000       1
H               6.08522000      1.08297000      6.96764000       1
I               2.11076000      8.33482000      3.58633000      53
I               7.50924000      4.68496000     -2.97745000      53
H               4.72943000      1.16886000      7.98236000       1
I               7.35605000      4.62160000      3.48804000      53
H               4.69271000     -8.10886000      0.44471800       1
H               5.99006000     -7.24757000     -0.44967100       1
I               9.22839000      1.84924000      0.32845700      53
P               0.17690000      2.04454000     -9.20603000      15
H              -0.48691900      6.13459000     -7.14969000       1
H               5.95487000     -7.19823000      1.34072000       1
C               0.01549840      6.87548000     -6.52343000       6
I              -2.27891000     -8.71249000     -2.97551000      53
H               9.15703000     -1.78534000      1.87237000       1
P              -8.61805000      2.05649000      3.59243000      15
I              -1.69744000     -0.58058500     -9.43727000      53
H               9.19418000     -2.64424000     -0.97902400       1
H              -0.71537300      7.53875000     -6.05503000       1
I               0.43196800     -6.97030000      6.78244000      53
I               2.76971000      0.09609570     -9.33739000      53
H              -7.28364000      6.48659000      0.09577000       1
H               0.05047690     -9.74418000      0.56197900       1
I              -4.21703000      6.44171000     -6.04299000      53
H               3.93362000     -5.87326000      6.77040000       1
I              -2.23118000     -8.80251000      3.66039000      53
H               5.37951000     -5.95999000      5.71057000       1
N               5.17333000     -6.50778000     -5.37458000       7
P               9.31669000      1.95108000     -2.85910000      15
C               9.55771000     -2.72749000      0.04738030       6
I              -2.34157000      9.22502000     -2.97551000      53
H               5.80069000     -5.77638000     -5.74537000       1
I               4.71968000      6.44171000     -6.04299000      53
H              -8.52693000      5.23690000      0.43770100       1
C              -4.27222000     -6.53653000      6.30200000       6
H              -7.43783000     -3.44253000     -5.85779000       1
