200
cutoff_factor=1.20000000 nneightol=1.20000000 Lattice="27.91323000       0.00000000       0.00000000       0.00000000      28.16401000       0.00000000       0.00000000       0.00000000      29.29143000" Properties=species:S:1:pos:R:3:Z:I:1
H              -0.04731630     -2.05728000     -0.50994200       1
H              -2.07056000     -1.06212000      0.46201000       1
I              -1.17338000      2.33657000     -0.32778000      53
H              -2.12032000     -0.98397100     -1.23350000       1
N              -2.11048000     -1.62381000     -0.41362500       7
C              -0.99195000     -2.60576000     -0.49903200       6
I               1.43265000      0.56866900      2.86051000      53
H               2.40139000      1.96989000      0.99113000       1
H               2.56519000      1.70539000     -1.42762000       1
H              -1.04422000     -3.26369000      0.37072300       1
H              -1.11231000     -3.18184000     -1.41864000       1
H              -3.03664000     -2.09548000     -0.40974800       1
I               1.26793000      0.32214000     -3.67355000      53
P              -1.26627000      2.40616000      2.84779000      15
N               2.83664000      2.71525000      0.40220400       7
I               3.29347000     -2.19079000     -0.32966200      53
H               2.11602000      3.42825000      0.21899900       1
C               3.38570000      2.15989000     -0.86995300       6
I              -3.03477000     -0.33956000      2.81788000      53
P              -1.18521000      2.33889000     -3.54254000      15
H               4.14310000      1.41200000     -0.62460800       1
I              -3.19665000     -0.14930700     -3.52266000      53
P               3.22582000     -2.12003000      2.86024000      15
H               3.58024000      3.15024000      0.99146400       1
I               0.54402700     -3.92957000      2.87521000      53
H              -0.76177500     -1.68807000      4.64778000       1
H              -4.81351000      1.41200000     -0.62460800       1
H               3.82685000      2.97956000     -1.43879000       1
P               3.25734000     -2.15460000     -3.56453000      15
I               0.75504500     -4.12322000     -3.56690000      53
H              -1.01222000      5.69505000      0.37072300       1
I               0.57602700      5.02917000      2.87521000      53
N              -0.59410700     -1.47363000      5.64906000       7
H              -0.81135900     -0.46915200      5.80993000       1
H               2.08402000     -5.53049000      0.21899900       1
C              -5.57091000      2.15989000     -0.86995300       6
H              -1.08031000      5.77690000     -1.41864000       1
I               0.78704500      4.83552000     -3.56690000      53
H               0.41895200     -1.61314000      5.84227000       1
I              -5.66315000     -2.19079000     -0.32966200      53
H              -5.12977000      2.97956000     -1.43879000       1
H               5.91998000     -2.09548000     -0.40974800       1
H              -5.37638000      3.15024000      0.99146400       1
H              -1.06234000     -0.76693200     -6.23529000       1
H              -0.28947600     -2.99620000     -5.62209000       1
I              -3.95190000      4.13574000      2.87412000      53
C              -0.95995100      6.35298000     -0.49903200       6
H               2.73651000      3.02684000      5.05085000       1
I              -1.36332000      2.14732000      6.03852000      53
I               5.92184000     -0.33956000      2.81788000      53
I              -3.67350000      4.33290000     -3.54891000      53
N              -6.11998000      2.71525000      0.40220400       7
H               3.41615000      2.40337000     -5.28326000       1
I              -1.20538000     -6.62217000     -0.32778000      53
P              -5.73080000     -2.12003000      2.86024000      15
I               5.75997000     -0.14930700     -3.52266000      53
H              -6.39143000      1.70539000     -1.42762000       1
H               3.54673000      0.83659000      5.78133000       1
N               2.80464000     -6.24349000      0.40220400       7
H               3.54824000     -5.80850000      0.99146400       1
I              -3.98390000     -4.82300000      2.87412000      53
I              -3.70550000     -4.62584000     -3.54891000      53
H              -6.55522000      1.96989000      0.99113000       1
H              -0.01531670      6.90146000     -0.50994200       1
H               6.88606000     -1.06212000      0.46201000       1
H              -2.40041000     -1.96231000     -6.27263000       1
H               6.83630000     -0.98397100     -1.23350000       1
N               6.84614000     -1.62381000     -0.41362500       7
I               3.04241000     -1.96978000      6.04771000      53
P              -5.69928000     -2.15460000     -3.56453000      15
C              -1.42283000     -2.34849000      6.53014000       6
C              -1.46627000     -1.64613000     -6.74248000       6
I               5.00472000      4.13574000      2.87412000      53
H              -2.47625000     -2.17358000      6.29974000       1
N              -0.47548200     -2.75853000     -6.62118000       7
H               3.79485000     -5.97918000     -1.43879000       1
P              -1.29827000     -6.55258000      2.84779000      15
H              -1.15660000     -3.38952000      6.33330000       1
H               2.15227000      2.32117000     -6.55431000       1
H               1.95968000      2.50168000      6.58142000       1
C               2.89382000      2.81786000      6.11157000       6
I              -1.28569000      2.52497000     -6.80634000      53
C               3.20569000      2.14626000     -6.32391000       6
H              -4.15664000      1.96743000      5.82074000       1
H               2.36940000     -6.98884000      0.99113000       1
H               3.47193000      1.10523000     -6.52075000       1
H               0.43988400     -2.49656000     -7.03331000       1
I               4.97272000     -4.82300000      2.87412000      53
H              -3.00464000      6.86326000     -0.40974800       1
N               3.88461000      1.70546000      6.23287000       7
I               3.32547000      6.76795000     -0.32966200      53
P              -1.21721000     -6.61985000     -3.54254000      15
C               3.35371000     -6.79884000     -0.86995300       6
N              -2.07848000      7.33493000     -0.41362500       7
H              -6.84060000      3.42825000      0.21899900       1
I               5.28312000      4.33290000     -3.54891000      53
H               4.79998000      1.96743000      5.82074000       1
H               2.53319000     -7.25335000     -1.42762000       1
I               5.25112000     -4.62584000     -3.54891000      53
I               3.23321000     -2.31667000     -6.81553000      53
H              -1.21238000     -2.09138000      7.57079000       1
H              -5.40989000      0.83659000      5.78133000       1
H              -0.81336200     -3.62740000     -7.07272000       1
H              -5.40838000     -5.80850000      0.99146400       1
H              -5.54047000      2.40337000     -5.28326000       1
H              -5.16177000     -5.97918000     -1.43879000       1
I              -7.52397000      0.56866900      2.86051000      53
P               3.25782000      6.83871000      2.86024000      15
H              -1.62358000     -1.43715000     -7.80320000       1
I               7.78324000      2.33657000     -0.32778000      53
H              -2.03856000      7.89662000      0.46201000       1
H              -0.25747700      5.96254000     -5.62209000       1
N              -5.07201000      1.70546000      6.23287000       7
H               2.70451000     -5.93190000      5.05085000       1
H               3.29776000      3.69706000      6.61875000       1
H              -2.08832000      7.97477000     -1.23350000       1
P               3.28934000      6.80414000     -3.56453000      15
C               7.96467000     -2.60576000     -0.49903200       6
H               4.07062000      1.46779000      7.23196000       1
H              -1.12460000      5.56922000      6.33330000       1
I              -7.68869000      0.32214000     -3.67355000      53
H              -3.90914000      2.88161000     -7.01178000       1
P               7.69035000      2.40616000      2.84779000      15
H              -6.22011000      3.02684000      5.05085000       1
H               7.91240000     -3.26369000      0.37072300       1
H               7.84431000     -3.18184000     -1.41864000       1
H              -5.48469000      1.10523000     -6.52075000       1
H               4.11111000     -7.54674000     -0.62460800       1
H              -0.72977600      7.27067000      4.64778000       1
I              -5.91421000     -1.96978000      6.04771000      53
N              -6.15198000     -6.24349000      0.40220400       7
N               4.03442000      3.02112000     -7.20499000       7
I              -5.63115000      6.76795000     -0.32966200      53
C              -5.75093000      2.14626000     -6.32391000       6
H              -6.87260000     -5.53049000      0.21899900       1
H              -4.88600000      1.46779000      7.23196000       1
C              -5.60291000     -6.79884000     -0.86995300       6
P               7.77141000      2.33889000     -3.54254000      15
H              -0.78136200      5.33134000     -7.07272000       1
H               3.81717000      4.02560000     -7.04412000       1
I               1.40065000     -8.39007000      2.86051000      53
H              -4.84551000     -7.54674000     -0.62460800       1
C              -6.06280000      2.81786000      6.11157000       6
H               3.26576000     -5.26168000      6.61875000       1
H               3.38415000     -6.55537000     -5.28326000       1
N              -0.44348200      6.20021000     -6.62118000       7
H               5.95197000      6.86326000     -0.40974800       1
H               5.04748000      2.88161000     -7.01178000       1
C               2.86182000     -6.14088000      6.11157000       6
H               8.90930000     -2.05728000     -0.50994200       1
I              -5.72341000     -2.31667000     -6.81553000      53
I              -1.39532000     -6.81142000      6.03852000      53
N              -4.92220000      3.02112000     -7.20499000       7
H              -9.00393000     -2.05728000     -0.50994200       1
H               6.55621000     -1.96231000     -6.27263000       1
H               6.48037000     -2.17358000      6.29974000       1
I               0.65459600     -0.16184600      9.30514000      53
P              -5.69880000      6.83871000      2.86024000      15
N              -0.56210700      7.48511000      5.64906000       7
C              -1.39083000      6.61025000      6.53014000       6
H               3.78517000     -4.93314000     -7.04412000       1
H               0.45095100      7.34560000      5.84227000       1
H               1.92768000     -6.45706000      6.58142000       1
I              -1.31768000     -6.43377000     -6.80634000      53
H              -5.65886000      3.69706000      6.61875000       1
I               1.23593000     -8.63660000     -3.67355000      53
H               3.86675000      2.80668000     -8.20627000       1
P              -5.66728000      6.80414000     -3.56453000      15
I              -3.00277000      8.61918000      2.81788000      53
H               0.47188300      6.46218000     -7.03331000       1
H               2.12027000     -6.63757000     -6.55431000       1
H               8.19484000     -1.68807000      4.64778000       1
H              -2.44425000      6.78516000      6.29974000       1
H              -5.13945000      4.02560000     -7.04412000       1
H              -6.58722000     -6.98884000      0.99113000       1
P              -1.33918000      2.30939000      9.28952000      15
H              -2.36841000      6.99643000     -6.27263000       1
I              -8.41259000     -3.92957000      2.87521000      53
H              -6.80434000      2.32117000     -6.55431000       1
I               3.07441000      6.98896000      6.04771000      53
H               7.94440000      5.69505000      0.37072300       1
H              -6.42343000     -7.25335000     -1.42762000       1
C               3.17369000     -6.81248000     -6.32391000       6
I              -8.20157000     -4.12322000     -3.56690000      53
H               7.87631000      5.77690000     -1.41864000       1
H              -6.99694000      2.50168000      6.58142000       1
I               7.59330000      2.14732000      6.03852000      53
H              -6.25211000     -5.93190000      5.05085000       1
I              -3.16465000      8.80943000     -3.52266000      53
I               0.64462300     -0.32824800     -9.97992000      53
H              -4.18864000     -6.99131000      5.82074000       1
H               8.14526000     -0.46915200      5.80993000       1
H              -5.17145000     -4.93314000     -7.04412000       1
C              -1.43427000      7.31261000     -6.74248000       6
I               1.46465000      9.52741000      2.86051000      53
I              -3.84148000      0.34077100      9.28714000      53
H              -5.08987000      2.80668000     -8.20627000       1
P               3.14288000     -2.15586000      9.31151000      15
I               3.26521000      6.64207000     -6.81553000      53
N               6.87814000      7.33493000     -0.41362500       7
