200
cutoff_factor=1.20000000 nneightol=1.20000000 Lattice="28.96999000       0.00000000       0.00000000       0.00000000      28.43293000       0.00000000       0.00000000       0.00000000      28.56439000" Properties=species:S:1:pos:R:3:Z:I:1
H               0.76950200      0.77991100      1.20523000       1
I              -1.87282000      0.70716300     -1.56534000      53
C               0.88052500      0.85269600      2.28938000       6
H              -0.19093400     -0.93475000      2.62678000       1
H              -1.15117000      0.41886200      2.66532000       1
N              -0.21085100      0.06017470      2.92878000       7
I               2.67649000      0.18984100     -1.24404000      53
H               1.84092000      0.43859400      2.60480000       1
H               0.80401600     -1.77994000     -2.64965000       1
H               0.78623500      1.89151000      2.61281000       1
I              -1.18815000     -2.91820000      1.09320000      53
P               0.69976800      2.30045000     -2.61820000      15
H              -0.09776310     -3.58248000     -1.28175000       1
H              -0.16878800      0.10021800      3.96722000       1
P              -3.84912000     -1.38255000      0.01178910      15
C               0.91199400     -2.81665000     -2.97533000       6
I               0.66411800      4.16556000     -0.03247960      53
N              -0.15389300     -3.62829000     -2.31924000       7
H              -1.10326000     -3.28345000     -2.57015000       1
H              -3.08675000      3.12890000     -0.44997600       1
I              -3.75482000      0.53205300      2.55723000      53
H               1.88487000     -3.21354000     -2.67643000       1
H              -3.34817000      0.68215900     -3.62012000       1
H               0.78368300     -2.89061000     -4.05735000       1
I               3.31288000     -3.54719000      1.44306000      53
H              -0.12164200     -4.62157000     -2.62326000       1
P               5.14570000     -1.38255000      0.01178910      15
I               0.71828400      0.48785800     -5.28043000      53
C              -3.56416000      4.11000000     -0.46138300       6
H               4.08449000      0.12847000     -3.75067000       1
I              -3.69686000     -3.19190000     -2.66189000      53
H               4.13218000      3.65003000      1.13353000       1
H              -2.82858000      4.89127000     -0.66586100       1
P               0.67428400     -5.05423000      2.61978000      15
H              -3.42413000      4.34677000      1.62905000       1
I               5.24000000      0.53205300      2.55723000      53
N              -4.18410000      0.67426900     -4.24513000       7
I              -1.93439000      4.41932000      3.66278000      53
N              -4.15617000      4.35784000      0.88384100       7
I               0.67406600     -3.16512000      5.18924000      53
H              -4.36733000      4.13800000     -1.19923000       1
H              -3.15620000     -2.93079000      4.40776000       1
I              -1.19350000      4.43544000     -4.12415000      53
H              -4.91033000      0.12847000     -3.75067000       1
H              -4.86264000      3.65003000      1.13353000       1
I               2.62146000      3.91703000      4.03981000      53
H               4.62749000      4.13800000     -1.19923000       1
I               3.31172000      3.83803000     -3.78145000      53
H               4.45137000      1.65296000     -4.30103000       1
I              -6.31833000      0.18984100     -1.24404000      53
N               4.81072000      0.67426900     -4.24513000       7
H              -4.54345000      1.65296000     -4.30103000       1
I              -1.23771000      0.78246300      6.34551000      53
H              -3.52888000     -0.91643800     -5.45720000       1
N               4.83865000      4.35784000      0.88384100       7
P               0.65833700      5.99796000      2.61978000      15
H               5.90807000      3.12890000     -0.44997600       1
I               5.29795000     -3.19190000     -2.66189000      53
H               5.64664000      0.68215900     -3.62012000       1
H              -2.81263000     -6.16091000     -0.66586100       1
C              -3.88197000      0.10791400     -5.58966000       6
C               5.43066000      4.11000000     -0.46138300       6
I              -5.68193000     -3.54719000      1.44306000      53
H              -3.11198000      0.72219000     -6.06191000       1
I               0.68006500     -6.88663000     -0.03247960      53
P              -3.89607000      2.32409000      5.23005000      15
H               4.37699000      5.29442000      0.92994300       1
H               4.15030000     -3.53142000      4.29001000       1
H              -0.13758900      6.43061000     -2.62326000       1
H              -4.61783000      5.29442000      0.92994300       1
C              -3.92619000     -3.54506000      4.88001000       6
H               5.57069000      4.34677000      1.62905000       1
H               4.39293000     -5.75777000      0.92994300       1
I               7.12199000      0.70716300     -1.56534000      53
H              -4.84451000     -3.53142000      4.29001000       1
H              -4.60188000     -5.75777000      0.92994300       1
I               3.26750000      0.18505200      6.68822000      53
H               4.19452000      0.12155200     -6.17965000       1
H              -0.12457000      3.75319000     -6.50245000       1
C               5.11285000      0.10791400     -5.58966000       6
H              -0.11371000      7.46971000     -1.28175000       1
H              -7.15390000      0.43859400      2.60480000       1
I              -1.87423000     -2.97989000     -6.80689000      53
P               5.09875000      2.32409000      5.23005000      15
H              -3.57310000     -4.56941000      5.01246000       1
H              -3.40818000     -6.70541000      1.62905000       1
H               5.46594000     -0.91643800     -5.45720000       1
N              -0.16983900      7.42390000     -2.31924000       7
I               2.68162000     -3.48218000     -6.42985000      53
C              -3.54821000     -6.94219000     -0.46138300       6
I              -1.91844000     -6.63286000      3.66278000      53
H              -4.80029000      0.12155200     -6.17965000       1
I              -5.68310000      3.83803000     -3.78145000      53
H               4.40715000     -2.00002000      6.16863000       1
H               0.72351900      4.50861000      6.41231000       1
C               5.06863000     -3.54506000      4.88001000       6
H               5.83862000     -2.93079000      4.40776000       1
I              -1.17755000     -6.61675000     -4.12415000      53
H               6.16624000      4.89127000     -0.66586100       1
N              -4.14022000     -6.69435000      0.88384100       7
H              -4.58766000     -2.00002000      6.16863000       1
P               0.65555000     -1.35253000      7.85146000      15
P               0.71850100     -1.40125000     -7.84989000      15
N              -4.22831000     -2.97871000      6.22453000       7
H              -3.39239000     -2.97082000      6.84955000       1
P              -3.83591000     -5.07512000     -5.23962000      15
H              -7.10995000     -3.21354000     -2.67643000       1
H              -4.35138000     -6.91419000     -1.19923000       1
H              -1.11920000      7.76873000     -2.57015000       1
H               7.84365000      0.41886200      2.66532000       1
I              -1.20409000      8.13399000      1.09320000      53
H              -0.14671700      2.71823000     -7.84288000       1
N               4.85460000     -6.69435000      0.88384100       7
I               3.29694000      7.50499000      1.44306000      53
H              -0.18180700      2.77764000      7.84641000       1
H              -8.22532000      0.77991100      1.20523000       1
N               4.76650000     -2.97871000      6.22453000       7
I               7.80667000     -2.91820000      1.09320000      53
N              -0.16663300      3.71315000     -7.54088000       7
H               4.64344000     -6.91419000     -1.19923000       1
C              -8.11429000      0.85269600      2.28938000       6
H               5.88283000      0.72219000     -6.06191000       1
H               1.86892000      7.83865000     -2.67643000       1
I              -6.37336000      3.91703000      4.03981000      53
H              -3.07080000     -7.92329000     -0.44997600       1
H               4.14813000     -7.40216000      1.13353000       1
H               4.04027000     -3.52451000      6.71900000       1
I               2.63741000     -7.13516000      4.03981000      53
H               5.42172000     -4.56941000      5.01246000       1
H               6.18219000     -6.16091000     -0.66586100       1
H              -8.19080000     -1.77994000     -2.64965000       1
I               3.32767000     -7.21416000     -3.78145000      53
C               0.89604700      8.23554000     -2.97533000       6
I              -5.72731000      0.18505200      6.68822000      53
H              -8.20858000      1.89151000      2.61281000       1
C               0.85182900      4.58256000      7.49434000       6
P              -3.85185000      5.97707000     -5.23962000      15
C               5.44661000     -6.94219000     -0.46138300       6
H              -1.10695000      4.07184000     -7.80435000       1
H               5.58664000     -6.70541000      1.62905000       1
H              -4.84669000     -7.40216000      1.13353000       1
H               7.89156000     -3.28345000     -2.57015000       1
P               5.15891000     -5.07512000     -5.23962000      15
H              -3.58904000      6.48277000      5.01246000       1
N              -0.21405700      3.77092000      8.15043000       7
H              -1.16342000      4.11576000      7.89952000       1
P              -8.29505000      2.30045000     -2.61820000      15
H               1.82470000      4.18567000      7.79323000       1
H              -4.95454000     -3.52451000      6.71900000       1
C              -8.08282000     -2.81665000     -2.97533000       6
H               1.88514000      4.09157000     -7.86486000       1
I              -3.71281000      7.86029000     -2.66189000      53
I               7.06043000      4.41932000      3.66278000      53
H               0.76773600      8.16158000     -4.05735000       1
P               0.71571500     -8.75174000     -2.61820000      15
H               0.73946500     -6.54358000      6.41231000       1
H               8.80388000     -0.93475000      2.62678000       1
N               8.78397000      0.06017470      2.92878000       7
I              -8.33070000      4.16556000     -0.03247960      53
H               5.60243000     -2.97082000      6.84955000       1
C               0.92474300      4.50567000     -8.18028000       6
I               0.65812000      7.88707000      5.18924000      53
P               5.14297000      5.97707000     -5.23962000      15
I              -1.14393000      0.73477500     -9.37647000      53
I              -5.69788000      7.50499000      1.44306000      53
H               0.75979800     -5.43291000      7.82002000       1
H               0.80218100     -9.16068000      2.61281000       1
I              -1.91704000     -2.94581000      8.90433000      53
H               4.13436000      7.52076000      4.29001000       1
H              -9.18575000     -0.93475000      2.62678000       1
H              -8.21113000     -2.89061000     -4.05735000       1
I               3.35710000      0.10578200     -9.02660000      53
I              -3.75703000      4.20731000      7.80777000      53
H               0.84639900     -5.50770000     -7.85686000       1
H               0.83045300      5.54449000     -7.85686000       1
H               0.74385100      5.61928000      7.82002000       1
I              -6.31319000     -3.48218000     -6.42985000      53
N              -9.20567000      0.06017470      2.92878000       7
H               0.78806900      9.27225000     -2.64965000       1
H               8.89705000     -3.58248000     -1.28175000       1
H               8.82603000      0.10021800      3.96722000       1
I              -3.71060000      4.18503000     -7.91244000      53
H              -3.17215000      8.12140000      4.40776000       1
H              -0.10862400     -7.29899000     -6.50245000       1
C              -3.94213000      7.50713000      4.88001000       6
H               5.40577000      6.48277000      5.01246000       1
I              -8.27653000      0.48785800     -5.28043000      53
N               8.84092000     -3.62829000     -2.31924000       7
I               5.28201000      7.86029000     -2.66189000      53
H              -9.09258000     -3.58248000     -1.28175000       1
H               9.76432000      0.77991100      1.20523000       1
I               7.80132000      4.43544000     -4.12415000      53
H               5.92402000     -7.92329000     -0.44997600       1
I              -5.66715000     -7.21416000     -3.78145000      53
H              -4.86046000      7.52076000      4.29001000       1
C               0.86777600     -6.46962000      7.49434000       6
H              -3.36396000     -3.05244000     -8.84062000       1
H              -0.15792700      3.81673000      9.18792000       1
H              -9.16361000      0.10021800      3.96722000       1
I               7.75710000      0.78246300      6.34551000      53
