200
cutoff_factor=1.20000000 nneightol=1.20000000 Lattice="27.80217000       0.00000000       0.00000000       0.00000000      28.99630000       0.00000000       0.00000000       0.00000000      28.52857000" Properties=species:S:1:pos:R:3:Z:I:1
I              -0.13954700      0.01773270     -0.71800800      53
H              -1.19106000      0.88804300      1.55355000       1
N              -1.67887000      1.22334000      2.41128000       7
P               2.48089000      1.97809000     -0.69666700      15
P              -2.00005000     -2.65565000     -0.69099600      15
H              -1.22344000      0.77949500      3.23918000       1
H               1.58587000     -1.83206000      2.62420000       1
H              -2.65590000      0.90613000      2.37112000       1
H               2.97435000     -1.45917000      1.73319000       1
H              -2.07145000      1.92734000     -2.50217000       1
H               1.36664000     -1.46668000     -3.25175000       1
I               2.42927000      1.90726000      2.47240000      53
H              -0.53472500      2.98918000      2.56854000       1
C              -1.58907000      2.70813000      2.52202000       6
I              -1.91858000     -2.58355000      2.47821000      53
H              -2.06190000      3.15092000      1.64398000       1
H               2.82567000     -1.75678000     -2.48019000       1
N               2.60466000     -1.96679000      2.56318000       7
H               1.67677000     -2.96467000     -2.55682000       1
N               2.09753000     -2.17706000     -3.09832000       7
H              -0.77851400      2.07638000     -3.73773000       1
I               4.23943000     -0.79698000     -0.58851600      53
C              -1.81847000      1.79523000     -3.55658000       6
H              -1.99477000      0.76222000     -3.86523000       1
I               0.67674400     -4.47450000     -0.76975300      53
I               0.61395300      4.58850000     -0.76975300      53
I              -4.66165000     -0.79698000     -0.58851600      53
H               2.48299000     -3.82931000      1.58061000       1
H               3.04186000     -1.55176000      3.41628000       1
H              -2.10537000      3.01879000      3.43187000       1
I               2.61807000      1.92467000     -3.87547000      53
C               2.95051000     -3.41485000      2.47579000       6
I              -2.07038000     -2.76491000     -3.88141000      53
I              -3.83823000      3.78592000     -0.61653600      53
I              -0.16096100      0.04877010      5.52650000      53
H               2.57469000     -3.91568000      3.36993000       1
C               2.67906000     -2.63919000     -4.39249000       6
N              -2.69555000      2.68569000     -4.36725000       7
H               4.03670000     -3.50888000      2.41571000       1
H               2.42020000      5.23369000      1.58061000       1
H               3.11245000     -1.77718000     -4.90496000       1
H              -2.55320000      3.68250000     -4.10474000       1
H              -3.69817000      2.44973000     -4.22003000       1
H               1.88014000     -3.07841000     -4.99441000       1
H              -5.92673000     -1.45917000      1.73319000       1
I               5.06286000      3.78592000     -0.61653600      53
H               3.44953000     -3.38356000     -4.17923000       1
H              -1.99911000     -5.91207000      1.64398000       1
H              -2.47773000      2.58786000     -5.37711000       1
H              -4.86439000     -3.50888000      2.41571000       1
P               2.47409000      1.99905000      5.65876000      15
I              -3.77544000     -5.27707000     -0.61653600      53
P              -1.99341000     -2.63955000      5.66766000      15
H              -0.47193500     -6.07381000      2.56854000       1
H               2.51190000      5.14731000      3.36993000       1
H               6.24518000      0.90613000      2.37112000       1
P              -6.42020000      1.97809000     -0.69666700      15
P              -2.06284000      6.40734000     -0.69099600      15
H              -6.07541000     -1.75678000     -2.48019000       1
H               1.61398000      6.09832000     -2.55682000       1
C               2.88772000      5.64814000      2.47579000       6
H              -5.85923000     -1.55176000      3.41628000       1
C              -1.52628000     -6.35486000      2.52202000       6
I               4.22340000     -0.80150800      5.59033000      53
N              -6.29643000     -1.96679000      2.56318000       7
I               0.61981900     -0.74966000     -7.01504000      53
H               5.20292000      2.44973000     -4.22003000       1
I              -6.47181000      1.90726000      2.47240000      53
H              -2.49041000     -5.38050000     -4.10474000       1
I              -1.98137000      6.47944000      2.47821000      53
I               0.68790100     -4.44992000      5.64782000      53
H               3.97391000      5.55412000      2.41571000       1
H              -2.04258000     -6.04420000      3.43187000       1
C              -5.95058000     -3.41485000      2.47579000       6
I               0.62511100      4.61307000      5.64782000      53
I              -4.67769000     -0.80150800      5.59033000      53
I               5.12565000     -5.27707000     -0.61653600      53
P               6.90104000     -2.65565000     -0.69099600      15
H               6.82964000      1.92734000     -2.50217000       1
P               2.54368000     -7.08490000     -0.69666700      15
I              -6.28302000      1.92467000     -3.87547000      53
H              -6.41810000     -3.82931000      1.58061000       1
H              -5.45156000     -3.38356000     -4.17923000       1
P               2.39824000      1.87760000     -7.05988000      15
I              -2.13317000      6.29808000     -3.88141000      53
H               6.83918000      3.15092000      1.64398000       1
N               7.22221000      1.22334000      2.41128000       7
P              -1.97256000     -2.54679000     -7.06877000      15
N              -6.80356000     -2.17706000     -3.09832000       7
H              -5.78864000     -1.77718000     -4.90496000       1
H              -4.92718000      5.55412000      2.41571000       1
N               2.03474000      6.88593000     -3.09832000       7
H               3.38674000      5.67943000     -4.17923000       1
H              -2.00866000     -7.13565000     -2.50217000       1
H               1.52308000      7.23093000      2.62420000       1
I               6.98251000     -2.58355000      2.47821000      53
I              -3.83461000      3.79619000      5.71250000      53
H               2.03171000     -1.92929000      7.35043000       1
H               7.71003000      0.88804300      1.55355000       1
H               6.90632000      0.76222000     -3.86523000       1
H              -0.71572400     -6.98661000     -3.73773000       1
N               2.54186000      7.09620000      2.56318000       7
I               2.49207000     -7.15573000      2.47240000      53
H              -7.31521000     -1.83206000      2.62420000       1
H               1.81735000      5.98459000     -4.99441000       1
I              -3.82154000      0.06722390     -7.07972000      53
N               6.20554000      2.68569000     -4.36725000       7
I              -0.28604700      3.71564000     -7.13721000      53
C              -6.22203000     -2.63919000     -4.39249000       6
C               7.08262000      1.79523000     -3.55658000       6
N              -2.63276000     -6.37731000     -4.36725000       7
H              -6.32640000     -3.91568000      3.36993000       1
H               6.79571000      3.01879000      3.43187000       1
C               7.31202000      2.70813000      2.52202000       6
H               2.76288000      7.30622000     -2.48019000       1
C               2.61627000      6.42380000     -4.39249000       6
H              -7.22432000     -2.96467000     -2.55682000       1
C              -1.75568000     -7.26776000     -3.55658000       6
H              -2.57430000      1.46744000      7.73313000       1
H               2.91156000      7.60382000      1.73319000       1
I               6.83070000     -2.76491000     -3.88141000      53
H              -7.53445000     -1.46668000     -3.25175000       1
N              -1.61608000     -7.83966000      2.41128000       7
H               1.30385000      7.59631000     -3.25175000       1
H               7.67765000      0.77949500      3.23918000       1
H              -1.12827000     -8.17495000      1.55355000       1
H              -1.34198000      2.76866000      7.82257000       1
H               6.34789000      3.68250000     -4.10474000       1
H              -6.48089000      5.23369000      1.58061000       1
I               5.06647000      3.79619000      5.71250000      53
I               2.68086000     -7.13832000     -3.87547000      53
C              -6.01337000      5.64814000      2.47579000       6
I              -3.77182000     -5.26681000      5.71250000      53
H              -3.63538000     -6.61326000     -4.22003000       1
H              -1.00490000      1.16229000      8.54831000       1
I               5.07954000      0.06722390     -7.07972000      53
C              -1.77538000      1.90665000      8.33505000       6
N               1.81390000     -1.83146000      8.36029000       7
H              -2.41494000     -6.47513000     -5.37711000       1
H               6.42335000      2.58786000     -5.37711000       1
H               2.97907000      7.51123000      3.41628000       1
I               8.76154000      0.01773270     -0.71800800      53
H               0.81127800     -2.06741000      8.50751000       1
P              -6.42699000      1.99905000      5.65876000      15
P              -2.05620000      6.42345000      5.66766000      15
H              -6.38919000      5.14731000      3.36993000       1
H               1.95625000     -0.83465100      8.62280000       1
H              -2.59311000     -8.15686000      2.37112000       1
I              -0.22325700     -5.34735000     -7.13721000      53
H              -5.51435000      5.67943000     -4.17923000       1
H              -1.16065000     -8.28350000      3.23918000       1
I              -9.04063000      0.01773270     -0.71800800      53
I              -0.07675660     -9.04526000     -0.71800800      53
I              -0.20233700      9.08073000     -0.71800800      53
H              -7.02095000     -3.07841000     -4.99441000       1
H               8.12257000      2.07638000     -3.73773000       1
H               6.90197000     -5.91207000      1.64398000       1
H               8.36636000      2.98918000      2.56854000       1
I               4.17664000      8.26601000     -0.58851600      53
H               3.04966000      7.28581000     -4.90496000       1
I               5.12926000     -5.26681000      5.71250000      53
P               6.90768000     -2.63955000      5.66766000      15
H               6.41068000     -5.38050000     -4.10474000       1
I               2.37627000      1.78093000      8.84613000      53
H              -1.93198000     -8.30077000     -3.86523000       1
I              -1.77357000     -2.59248000      8.85207000      53
I              -8.22434000     -4.47450000     -0.76975300      53
P               6.83825000      6.40734000     -0.69099600      15
P               2.53688000     -7.06394000      5.65876000      15
H               5.26571000     -6.61326000     -4.22003000       1
I              -8.28713000      4.58850000     -0.76975300      53
I               4.29347000     -4.49708000     -7.20104000      53
I               4.23068000      4.56592000     -7.20104000      53
I              -4.72444000      8.26601000     -0.58851600      53
P              -6.35741000     -7.08490000     -0.69666700      15
H              -1.93476000      0.60146400     -9.35761000       1
I              -4.60762000     -4.49708000     -7.20104000      53
H               2.34906000     -1.52705000     -9.29566000       1
I              -4.67041000      4.56592000     -7.20104000      53
H               6.85850000     -6.04420000      3.43187000       1
P              -6.50285000      1.87760000     -7.05988000      15
I               6.91972000      6.47944000      2.47821000      53
P              -2.03535000      6.51620000     -7.06877000      15
H              -5.98952000      7.60382000      1.73319000       1
H              -7.28711000      6.09832000     -2.55682000       1
H              -6.13820000      7.30622000     -2.48019000       1
N              -6.35922000      7.09620000      2.56318000       7
H              -1.46759000      2.96539000     -9.31126000       1
I              -6.40902000     -7.15573000      2.47240000      53
C               2.69098000     -2.72191000      9.17096000       6
H               2.51468000     -3.75493000      8.86231000       1
N               6.26833000     -6.37731000     -4.36725000       7
C              -6.28482000      6.42380000     -4.39249000       6
I               6.76791000      6.29808000     -3.88141000      53
H               3.73093000     -2.44077000      8.98981000       1
C               7.37481000     -6.35486000      2.52202000       6
H               6.32679000      1.46744000      7.73313000       1
H              -1.27919000     -6.29433000      7.82257000       1
H              -1.25385000      9.95104000      1.55355000       1
H              -5.92202000      7.51123000      3.41628000       1
