200
cutoff_factor=1.20000000 nneightol=1.20000000 Lattice="28.74352000       0.00000000       0.00000000       0.00000000      28.80954000       0.00000000       0.00000000       0.00000000      28.19468000" Properties=species:S:1:pos:R:3:Z:I:1
H              -0.56243700      0.60814000      0.04381720       1
C              -1.58833000      0.72130300     -0.31148200       6
N              -2.11519000     -0.63122300     -0.66210800       7
H              -1.55735000     -1.09670000     -1.40149000       1
H              -1.61517000      1.34273000     -1.20851000       1
H              -2.11501000     -1.27640000      0.15722800       1
H              -2.22058000      1.14833000      0.47043900       1
I               1.73529000      1.76465000      1.55062000      53
I               2.14341000     -2.48396000     -0.13788800      53
H              -3.09448000     -0.59212400     -1.01582000       1
I               1.94076000      1.01718000     -3.02401000      53
P               3.74557000      0.30277200     -0.43825800      15
H               2.25562000     -2.57397000      2.43862000       1
I              -1.96710000     -3.45486000      1.52020000      53
H               0.59502800     -1.95305000      4.12440000       1
I              -1.47834000      0.10396200      4.37037000      53
I              -1.24322000     -3.36677000     -2.94766000      53
H               1.95071000     -1.31386000     -4.02403000       1
H               2.30012000      4.11603000     -0.19674000       1
H               0.98515900     -2.69233000     -3.98263000       1
P               0.09261410      2.84434000      4.02388000      15
I              -1.44428000      4.07553000     -2.40007000      53
P               0.08133580     -4.98276000     -0.46829700      15
N               2.24672000     -3.02315000      3.37872000       7
I              -2.19709000      4.08257000      2.13599000      53
H               2.19748000     -1.23008000      4.49196000       1
C               1.62497000     -2.15779000      4.42150000       6
N               1.78682000     -2.24199000     -4.47724000       7
H               1.73892000     -3.92233000      3.26204000       1
H               0.52434900      5.35186000     -1.30292000       1
I              -2.01697000      0.44638700     -5.18430000      53
C               2.24759000      5.20148000     -0.09344490       6
P               0.08923390      2.86310000     -4.96984000      15
H               1.72257000      5.47575000      0.82364700       1
I              -5.40068000     -0.59067200      2.05121000      53
H               2.62564000     -2.82823000     -4.39001000       1
I              -5.18679000     -1.26851000     -2.38367000      53
H               3.23058000     -3.27819000      3.61096000       1
P              -3.59429000     -2.31057000      4.07585000      15
I               5.61740000     -0.59067200      2.05121000      53
H               4.90220000      2.20748000      2.68735000       1
N               1.48764000      5.74458000     -1.25234000       7
H               0.53821500     -1.41555000     -5.96009000       1
H               1.93539000      5.49818000     -2.16030000       1
I               5.39814000      3.01947000     -0.75066000      53
H               1.64693000     -2.69655000      5.37062000       1
H              -4.10171000     -4.76633000     -0.10713600       1
H               5.08587000     -3.61913000     -1.22964000       1
C               1.43092000     -2.04289000     -5.91075000       6
I              -5.61994000      3.01947000     -0.75066000      53
I               5.83129000     -1.26851000     -2.38367000      53
H               4.20633000      3.81046000      3.08560000       1
H               3.24993000      5.63334000     -0.10713600       1
P              -3.58510000      5.41691000     -0.46829700      15
P              -3.57550000     -2.38167000     -5.02182000      15
H               4.19079000     -5.04781000     -1.30292000       1
C               5.09903000      3.18312000      3.13495000       6
H              -5.08280000      3.67294000      2.63336000       1
I               2.42489000      1.85924000      6.09803000      53
I               1.46934000     -6.31710000      2.13599000      53
H               5.33046000      2.47712000     -3.67508000       1
H               2.26716000     -1.55307000     -6.41233000       1
H              -6.11588000      2.20748000      2.68735000       1
H               1.41943000      6.78054000     -1.22964000       1
H              -4.72433000      2.39778000      4.65568000       1
H              -5.93221000     -3.61913000     -1.22964000       1
N               5.15407000     -4.65509000     -1.25234000       7
I               1.65114000      5.67239000      3.86139000      53
H              -4.10397000      1.89548000     -5.43474000       1
H              -1.74813000      0.32451300      6.88539000       1
I               2.22215000     -6.32414000     -2.40007000      53
H               1.23408000     -3.01852000     -6.35834000       1
H              -5.68762000      2.47712000     -3.67508000       1
H               4.27855000      3.22062000     -4.92129000       1
C              -5.10405000     -5.19819000     -0.09344490       6
P              -7.27251000      0.30277200     -0.43825800      15
H               4.65327000      2.53368000      5.06306000       1
H               5.38901000     -4.92392000      0.82364700       1
H              -1.41637000     -6.72674000      2.63336000       1
I               2.20519000      5.27763000     -4.67533000      53
C              -5.91904000      3.18312000      3.13495000       6
H               5.93528000      3.67294000      2.63336000       1
H              -1.92751000      6.47735000      3.26204000       1
I              -1.74276000     -4.15649000      6.02168000      53
H              -5.62907000     -4.92392000      0.82364700       1
N              -5.86400000     -4.65509000     -1.25234000       7
H              -5.41625000     -4.90149000     -2.16030000       1
C               5.30849000      3.01588000     -4.62419000       6
I              -1.95350000     -7.38020000     -0.75066000      53
N               5.45494000      2.98402000      4.56845000       7
H               5.60183000     -4.90149000     -2.16030000       1
N              -5.56314000      2.98402000      4.56845000       7
C               5.91403000     -5.19819000     -0.09344490       6
I              -1.51868000      3.95750000      6.66202000      53
I               1.71643000      1.71881000     -7.52550000      53
N              -5.08784000      2.15052000     -5.66698000       7
H              -5.13707000      3.94359000     -4.55373000       1
H              -3.14531000     -6.58921000      3.08560000       1
C              -5.70959000      3.01588000     -4.62419000       6
H              -0.43585500      7.12148000      3.61096000       1
H               7.92360000     -0.59212400     -1.01582000       1
H               5.42245000      1.25134000     -5.78366000       1
H              -1.47064000     -6.45608000     -4.55373000       1
I              -1.52303000      7.91571000     -0.13788800      53
H              -5.05152000     -6.28364000     -0.19674000       1
I               5.31758000     -4.72728000      3.86139000      53
N              -2.19589000      0.57091500      7.79336000       7
H              -5.59563000      1.25134000     -5.78366000       1
C              -2.25261000     -7.21656000      3.13495000       6
H               6.29375000      2.39778000      4.65568000       1
N              -1.41972000      7.37653000      3.37872000       7
H              -2.26409000      1.60688000      7.81605000       1
H              -1.41082000      7.82570000      2.43862000       1
H              -5.39925000      3.91215000      5.02167000       1
I              -5.70050000     -4.72728000      3.86139000      53
H              -3.15918000      0.17819400      7.74278000       1
H              -1.73281000     -6.48752000      5.02167000       1
H              -6.81175000      3.81046000      3.08560000       1
H               6.91637000     -4.76633000     -0.10713600       1
H               5.88100000      3.94359000     -4.55373000       1
H              -1.94555000      0.24974500     -8.22205000       1
I              -5.12781000     -1.09813000      6.64562000      53
I              -1.93283000     -3.46136000     -7.49508000      53
N               5.93024000      2.15052000     -5.66698000       7
H               5.61883000      3.91215000      5.02167000       1
H              -6.36480000      2.53368000      5.06306000       1
I              -1.71715000      4.58300000     -6.99449000      53
H              -6.82729000     -5.04781000     -1.30292000       1
I              -5.14645000     -5.12204000     -4.67533000      53
H               5.96656000     -6.28364000     -0.19674000       1
I               5.15287000     -1.14343000     -6.90971000      53
H              -5.07893000      2.59969000     -6.60708000       1
I               1.71461000     -2.15420000      8.29503000      53
P               7.42379000     -2.31057000      4.07585000      15
H              -1.04080000      7.57145000     -4.39001000       1
H               8.79750000      1.14833000      0.47043900       1
N              -1.89671000     -7.41565000      4.56845000       7
I               5.38455000      6.94482000      1.52020000      53
H               2.11076000      4.12931000      7.64420000       1
H              -6.73953000      3.22062000     -4.92129000       1
I               5.89027000     -1.09813000      6.64562000      53
C              -2.04315000     -7.38380000     -4.62419000       6
N               8.90288000     -0.63122300     -0.66210800       7
H              -0.43359700      0.45967600      8.93856000       1
H              -2.44944000     -8.19219000      2.68735000       1
H              -2.02118000     -7.92256000     -3.67508000       1
H               8.90307000     -1.27640000      0.15722800       1
H               6.91411000      1.89548000     -5.43474000       1
H              -1.38341000     -1.05764000      8.84895000       1
C              -1.43594000      0.02781740      8.95225000       6
I              -4.90966000      7.03290000     -2.94766000      53
I              -5.63353000      6.94482000      1.52020000      53
H              -2.68128000      7.70735000     -3.98263000       1
I               5.87162000     -5.12204000     -4.67533000      53
I              -5.86521000     -1.14343000     -6.90971000      53
H              -0.41818700      0.40733800     -9.15283000       1
H              -7.78750000     -3.27819000      3.61096000       1
P               7.43298000      5.41691000     -0.46829700      15
I              -8.87467000     -2.48396000     -0.13788800      53
H              -3.07309000     -7.17905000     -4.92129000       1
C              -1.42053000     -0.02452130     -9.13914000       6
H               5.93915000      2.59969000     -6.60708000       1
H               0.57363200      4.63388000      8.02988000       1
P               7.44258000     -2.38167000     -5.02182000      15
I               1.94928000     -5.81668000     -6.99449000      53
H              -1.05789000     -8.00189000      4.65568000       1
P               3.75905000     -7.55533000      4.02388000      15
P               3.74945000      0.24324100      8.57740000      15
H               2.05127000     -9.05694000     -1.20851000       1
H               1.44585000     -9.25134000      0.47043900       1
H              -1.36800000     -1.10998000     -9.24243000       1
H              -8.76246000     -2.57397000      2.43862000       1
C               9.42975000      0.72130300     -0.31148200       6
N              -1.87962000      8.15769000     -4.47724000       7
I               2.14776000     -6.44217000      6.66202000      53
C              -2.04147000      8.24188000      4.42150000       6
H               9.40291000      1.34273000     -1.20851000       1
I              -9.28279000      1.76465000      1.55062000      53
H              -7.76815000      5.63334000     -0.10713600       1
H              -2.01950000      7.70312000      5.37062000       1
I              -9.07732000      1.01718000     -3.02401000      53
H               9.46073000     -1.09670000     -1.40149000       1
H              -8.71796000      4.11603000     -0.19674000       1
I               2.16485000      9.13117000     -2.38367000      53
N               1.55292000      4.59478000      8.38359000       7
H              -2.69837000     -7.86600000      5.06306000       1
I               6.10842000      7.03290000     -2.94766000      53
P               3.75567000     -7.53658000     -4.96984000      15
P               3.75735000      8.08910000      4.07585000      15
I               9.05098000     -3.45486000      1.52020000      53
H               1.56852000      3.89727000     -8.88847000       1
N              -8.77136000     -3.02315000      3.37872000       7
H              -8.39244000     -2.82823000     -4.39001000       1
H              -3.07141000      8.44663000      4.12440000       1
P               0.06203990     -4.87090000      8.60744000      15
C               2.07811000     -9.67837000     -0.31148200       6
I               8.82098000      4.08257000      2.13599000      53
H              -8.82060000     -1.23008000      4.49196000       1
H              -9.06737000     -1.31386000     -4.02403000       1
H              -2.43235000      7.38115000     -6.35834000       1
