200
cutoff_factor=1.20000000 nneightol=1.20000000 Lattice="28.81698000       0.00000000       0.00000000       0.00000000      28.56389000       0.00000000       0.00000000       0.00000000      28.33854000" Properties=species:S:1:pos:R:3:Z:I:1
H              -1.35594000      0.81252700      1.29237000       1
I               1.39916000     -1.64588000      0.18193400      53
H              -0.30430200      2.61670000      0.04405720       1
H               0.62438500      2.22876000      1.36111000       1
N              -0.29466100      2.62141000      1.08569000       7
C              -1.42622000      1.83796000      1.66062000       6
I               0.70403400      2.03448000     -2.31177000      53
I              -3.06011000     -1.13792000     -0.26145200      53
H              -2.36461000      2.29724000      1.34219000       1
P               3.29496000      0.39921600     -1.29451000      15
H              -1.33920000      1.85735000      2.74875000       1
P              -1.14466000     -3.20077000      1.32301000      15
H              -2.05036000     -1.75944000     -2.61545000       1
H              -0.29340900      3.60702000      1.42643000       1
H              -0.83908400     -0.05806250     -3.86943000       1
H               0.06005400     -1.61200000     -3.84667000       1
I               3.33129000      2.35350000      1.27345000      53
I              -0.98041900     -1.34970000      3.95862000      53
C              -0.83111600     -1.09535000     -4.21001000       6
H               3.32181000     -0.42244000      2.96704000       1
N              -2.03445000     -1.78057000     -3.65703000       7
H               3.29228000     -2.19530000      2.69160000       1
H               1.65193000     -1.51136000      4.35005000       1
H               2.81866000     -4.09591000     -0.55441300       1
C               3.52764000     -1.40184000      3.40452000       6
H              -2.91310000     -1.33057000     -3.97399000       1
H              -2.08444000     -2.77056000     -3.98078000       1
I               3.30766000     -1.28974000     -4.03458000      53
I              -1.30897000     -5.10659000     -1.28685000      53
I              -3.81815000      2.53615000     -2.93731000      53
H              -0.88168600     -1.13833000     -5.29997000       1
N               2.65871000     -1.57457000      4.60676000       7
P              -1.14327000      4.08081000     -3.93855000      15
C               2.93919000     -4.81031000     -1.37064000       6
P              -5.64919000      0.39921600     -1.29451000      15
H               3.23433000     -4.29770000     -2.28898000       1
H              -4.37269000     -1.46917000      3.71959000       1
H               2.01597000     -5.37294000     -1.52666000       1
I               5.88403000     -1.13792000     -0.26145200      53
I               1.47712000      2.04455000      5.48736000      53
H               3.78474000      4.74670000     -0.11732300       1
H               4.57145000     -1.46917000      3.71959000       1
I               0.72536500     -5.39248000      2.72177000      53
H               2.85650000     -0.83470700      5.30681000       1
H               2.00308000      5.65093000     -1.52666000       1
I              -1.32186000      5.91728000     -1.28685000      53
I              -5.61286000      2.35350000      1.27345000      53
H               2.89083000      1.00837000     -5.41647000       1
I               0.71247100      5.63139000      2.72177000      53
H               2.83676000     -2.49417000      5.05773000       1
H              -5.62234000     -0.42244000      2.96704000       1
H               4.17278000      4.53709000     -1.73142000       1
I               5.12599000      2.53615000     -2.93731000      53
I              -3.74436000     -4.71601000      2.43595000      53
H               2.91058000      2.66783000     -5.16739000       1
I              -3.01898000      2.74549000      5.09149000      53
C              -5.41651000     -1.40184000      3.40452000       6
P               3.30289000      4.17422000      3.95690000      15
H              -5.65187000     -2.19530000      2.69160000       1
H               1.70600000      1.99117000     -6.12415000       1
P              -1.19734000      0.57827800      6.53565000      15
N               4.00736000      5.25544000     -0.99306500       7
H              -4.01426000     -5.29225000     -0.83517700       1
N               2.71278000      1.92797000     -5.86744000       7
H              -4.77137000      4.53709000     -1.73142000       1
I              -0.92634900      2.15284000     -6.51558000      53
C               2.92630000      6.21355000     -1.37064000       6
H              -5.15940000      4.74670000     -0.11732300       1
H              -0.93575600     -4.64087000      5.17423000       1
I              -5.63648000     -1.28974000     -4.03458000      53
H              -4.02716000      5.73161000     -0.83517700       1
H               6.57954000      2.29724000      1.34219000       1
N               4.02026000     -5.76842000     -0.99306500       7
N              -4.93678000      5.25544000     -0.99306500       7
H               4.92989000     -5.29225000     -0.83517700       1
H               3.79764000     -6.27716000     -0.11732300       1
H               6.03105000     -1.33057000     -3.97399000       1
H              -6.12549000     -4.09591000     -0.55441300       1
I               5.19979000     -4.71601000      2.43595000      53
H               2.80576000      6.92795000     -0.55441300       1
H              -5.70982000     -4.29770000     -2.28898000       1
H              -0.89315400     -3.56060000      6.60477000       1
H              -0.28051500     -7.41684000      1.42643000       1
I               1.54409000     -5.47678000     -4.98684000      53
H               6.89379000     -1.75944000     -2.61545000       1
H               4.91699000      5.73161000     -0.83517700       1
I               1.53119000      5.54709000     -4.98684000      53
N              -4.92389000     -5.76842000     -0.99306500       7
I              -7.54499000     -1.64588000      0.18193400      53
I              -3.75726000      6.30785000      2.43595000      53
H               7.58821000      0.81252700      1.29237000       1
I              -2.95202000     -4.77584000     -5.38271000      53
H               3.22144000      6.72617000     -2.28898000       1
C              -6.00496000     -4.81031000     -1.37064000       6
C              -0.88518600     -4.59788000      6.26419000       6
H               4.18568000     -6.48678000     -1.73142000       1
C               7.51792000      1.83796000      1.66062000       6
N              -6.28544000     -1.57457000      4.60676000       7
I               0.77943500     -1.88994000     -7.75243000      53
N               6.90970000     -1.78057000     -3.65703000       7
P              -1.15756000      7.82310000      1.32301000      15
P              -5.64125000      4.17422000      3.95690000      15
P              -1.13038000     -6.94305000     -3.93855000      15
P               3.36986000     -3.34710000     -6.51730000      15
H              -5.14651000     -6.27716000     -0.11732300       1
H              -6.08764000     -0.83470700      5.30681000       1
H              -6.05332000      1.00837000     -5.41647000       1
C               3.58171000      2.10070000     -7.06968000       6
H              -4.75847000     -6.48678000     -1.73142000       1
H              -4.31862000      2.03337000     -6.75461000       1
H              -0.94865000      6.38300000      5.17423000       1
I               5.92517000      2.74549000      5.09149000      53
H               7.60495000      1.85735000      2.74875000       1
H              -6.10739000     -2.49417000      5.05773000       1
I               0.64996400     -1.46806000      8.16243000      53
H              -2.15140000      4.75077000      6.49342000       1
H               0.00598393     -5.11454000      6.62753000       1
H              -6.03357000      2.66783000     -5.16739000       1
H               6.85971000     -2.77056000     -3.98078000       1
H              -0.29140800     -8.40717000      0.04405720       1
H               4.62552000      2.03337000     -6.75461000       1
N              -0.28176700     -8.40245000      1.08569000       7
I               5.18689000      6.30785000      2.43595000      53
I              -3.87222000     -0.96638900      7.53689000      53
P               7.79949000     -3.20077000      1.32301000      15
H               3.34635000      1.30723000     -7.78260000       1
P               3.31579000     -6.84964000      3.95690000      15
H              -7.29222000     -1.51136000      4.35005000       1
H              -2.96717000     -4.83311000      6.50021000       1
I               3.25359000     -4.79227000      6.43962000      53
H              -8.31976000      2.22876000      1.36111000       1
C              -6.01785000      6.21355000     -1.37064000       6
I              -2.96491000      6.24802000     -5.38271000      53
N              -6.23137000      1.92797000     -5.86744000       7
H               3.37588000      3.08010000     -7.50716000       1
I              -8.24011000      2.03448000     -2.31177000      53
N              -2.08852000     -5.28311000      6.81717000       7
H              -0.00691000      5.90933000      6.62753000       1
H              -6.92818000     -5.37294000     -1.52666000       1
H               0.63727900     -8.79510000      1.36111000       1
I              -3.69029000     -1.21348000     -8.03825000      53
H               8.10506000     -0.05806250     -3.86943000       1
I               7.96373000     -1.34970000      3.95862000      53
C              -0.89808000      6.42598000      6.26419000       6
H               8.63985000      2.61670000      0.04405720       1
H              -6.94107000      5.65093000     -1.52666000       1
N               8.64949000      2.62141000      1.08569000       7
C              -5.36244000      2.10070000     -7.06968000       6
H              -5.72271000      6.72617000     -2.28898000       1
I               5.07192000     -0.96638900      7.53689000      53
H              -2.35172000     -8.72663000      1.34219000       1
N              -2.10141000      5.74075000      6.81717000       7
C               8.11303000     -1.09535000     -4.21001000       6
P              -5.57429000     -3.34710000     -6.51730000      15
P              -1.09059000      0.30177100     -9.15119000      15
H              -6.13838000      6.92795000     -0.55441300       1
I               7.63518000     -5.10659000     -1.28685000      53
H              -2.13851000     -6.27309000      6.49342000       1
I               0.71692800     -8.98939000     -2.31177000      53
H               3.16737000      3.22363000      8.18522000       1
I               5.99213000     -4.77584000     -5.38271000      53
I               3.34419000     -8.67036000      1.27345000      53
H              -2.09733000      8.25331000     -3.98078000       1
H               1.94901000      2.14839000      8.94754000       1
C              -1.41333000     -9.18591000      1.66062000       6
H              -2.98006000      6.19076000      6.50021000       1
H               8.65074000      3.60702000      1.42643000       1
I               1.38626000      9.37798000      0.18193400      53
I              -7.46702000      2.04455000      5.48736000      53
H              -1.28513000      5.35989000     -7.72545000       1
I               3.24070000      6.23159000      6.43962000      53
I              -1.37593000      2.41474000      9.18735000      53
H              -9.24845000      2.61670000      0.04405720       1
P               7.80087000      4.08081000     -3.93855000      15
H              -1.32630000     -9.16652000      2.74875000       1
H              -1.27223000     -5.66398000     -7.72545000       1
N              -9.23881000      2.62141000      1.08569000       7
H              -5.59780000      1.30723000     -7.78260000       1
I               5.25386000     -1.21348000     -8.03825000      53
H              -7.23815000      1.99117000     -6.12415000       1
H              -2.10443000     -5.26198000      7.85875000       1
P              -5.62836000     -6.84964000      3.95690000      15
H               8.06246000     -1.13833000     -5.29997000       1
H               4.11871000      1.03455000      8.74278000       1
I               7.62229000      5.91728000     -1.28685000      53
I              -3.80526000     -8.48772000     -2.93731000      53
H               3.27939000      8.82856000      2.69160000       1
H              -8.88409000     -1.61200000     -3.84667000       1
I              -5.69055000     -4.79227000      6.43962000      53
H              -5.56827000      3.08010000     -7.50716000       1
H              -2.06326000      9.26442000     -2.61545000       1
H              -0.22644500     -3.91431000     -9.04777000       1
H               9.56853000      2.22876000      1.36111000       1
H               9.00420000     -1.61200000     -3.84667000       1
C               2.87223000      2.71102000      9.10356000       6
H              -2.11733000      5.76189000      7.85875000       1
H              -0.90604800      7.46327000      6.60477000       1
H              -9.23756000      3.60702000      1.42643000       1
H              -4.82544000      1.03455000      8.74278000       1
H               5.97698000     -4.83311000      6.50021000       1
