200
cutoff_factor=1.20000000 nneightol=1.20000000 Lattice="27.56414000       0.00000000       0.00000000       0.00000000      28.58811000       0.00000000       0.00000000       0.00000000      28.99569000" Properties=species:S:1:pos:R:3:Z:I:1
H               1.15649000     -0.45064800     -0.02386490       1
H              -0.21748700     -1.60381000      0.03813900       1
C               0.83560800     -1.47596000     -0.22140300       6
H               1.00425000     -1.73552000     -1.26880000       1
I              -2.03852000      0.17031300      1.82526000      53
N               1.64590000     -2.39684000      0.62860600       7
H               1.52363000     -2.17989000      1.63844000       1
I               1.20717000      2.94252000     -0.04269090      53
P              -2.00135000      2.79582000      0.03186210      15
I              -1.99874000      1.01685000     -2.61845000      53
H               2.65197000     -2.30634000      0.38799000       1
H               1.37802000     -3.38613000      0.45770100       1
H               1.02524000      1.79476000      3.30844000       1
H               1.20967000      2.79558000     -2.71447000       1
H               0.38181400      1.72749000     -3.68741000       1
I              -2.05079000     -3.47739000     -1.74526000      53
H              -3.77873000     -2.30634000      0.38799000       1
N               1.22328000      2.33760000     -3.64533000       7
H               2.07762000      1.74427000     -3.66747000       1
I               4.39217000      0.17031300      1.82526000      53
I               1.22495000     -1.72298000      4.29897000      53
I               1.18985000     -1.60970000     -4.40878000      53
C               1.48942000      2.35190000      4.12551000       6
P              -2.04173000     -1.66418000     -4.40695000      15
P              -1.99846000     -1.68596000      4.44975000      15
P               4.42934000      2.79582000      0.03186210      15
I               4.43196000      1.01685000     -2.61845000      53
H              -5.27420000     -0.45064800     -0.02386490       1
H               2.17318000      3.10668000      3.73342000       1
N              -4.78479000     -2.39684000      0.62860600       7
I              -1.92805000     -4.35767000      2.64948000      53
H               2.01299000      1.67190000      4.79958000       1
H              -4.90707000     -2.17989000      1.63844000       1
H              -0.15821400      3.66049000      4.28231000       1
I              -1.94610000      4.62590000      2.64948000      53
H               1.35997000      5.59744000      0.45770100       1
N               0.41473300      3.04327000      4.89615000       7
C              -5.59508000     -1.47596000     -0.22140300       6
H              -0.25075100      2.34728000      5.30208000       1
H              -5.42644000     -1.73552000     -1.26880000       1
I               4.37991000     -3.47739000     -1.74526000      53
C               1.22701000      3.33890000     -4.75120000       6
H              -4.35307000      1.74427000     -3.66747000       1
I              -5.22352000      2.94252000     -0.04269090      53
H              -5.05267000     -3.38613000      0.45770100       1
H               0.32589700      3.94880000     -4.66416000       1
I              -2.06884000      5.50619000     -1.74526000      53
I               1.22522000     -6.04105000     -0.04269090      53
H               6.21320000     -1.60381000      0.03813900       1
P               4.38896000     -1.66418000     -4.40695000      15
H              -4.25751000      3.10668000      3.73342000       1
H               2.11757000      3.96161000     -4.64686000       1
H               1.24010000      2.80535000     -5.70427000       1
P              -1.98330000     -6.18776000      0.03186210      15
P               4.43223000     -1.68596000      4.44975000      15
H              -5.22102000      2.79558000     -2.71447000       1
H              -5.40546000      1.79476000      3.30844000       1
I              -2.01026000      0.90215200      6.30975000      53
H              -4.41770000      1.67190000      4.79958000       1
H               0.78953100      3.59218000      5.68652000       1
N              -5.20741000      2.33760000     -3.64533000       7
I               4.50264000     -4.35767000      2.64948000      53
N               1.62785000      6.58674000      0.62860600       7
H              -0.14016200     -5.32308000      4.28231000       1
H              -6.64818000     -1.60381000      0.03813900       1
C              -4.94127000      2.35190000      4.12551000       6
H               1.22772000     -6.18799000     -2.71447000       1
H               0.34394800     -5.03478000     -4.66416000       1
I               4.48459000      4.62590000      2.64948000      53
I              -5.20574000     -1.72298000      4.29897000      53
I              -5.24084000     -1.60970000     -4.40878000      53
H               1.50558000      6.80369000      1.63844000       1
H               2.13562000     -5.02196000     -4.64686000       1
H               2.63391000      6.67723000      0.38799000       1
I               4.36185000      5.50619000     -1.74526000      53
H              -6.04888000      1.72749000     -3.68741000       1
H               2.19123000     -5.87689000      3.73342000       1
I              -1.95682000      0.24737400     -7.04144000      53
H              -0.23553800      7.37977000      0.03813900       1
C               7.26630000     -1.47596000     -0.22140300       6
H               0.98619700      7.24805000     -1.26880000       1
H              -4.31312000      3.96161000     -4.64686000       1
C               1.24506000     -5.64467000     -4.75120000       6
C               0.81755700      7.50761000     -0.22140300       6
H              -5.07072000      5.59744000      0.45770100       1
H               7.58718000     -0.45064800     -0.02386490       1
P               4.44740000     -6.18776000      0.03186210      15
N               1.24133000     -6.64597000     -3.64533000       7
H              -3.79678000      6.67723000      0.38799000       1
N               0.43278400     -5.94030000      4.89615000       7
H               7.43494000     -1.73552000     -1.26880000       1
I               4.42043000      0.90215200      6.30975000      53
C              -5.20368000      3.33890000     -4.75120000       6
I              -1.96804000     -4.19284000     -6.32428000      53
H               1.01338000     -0.60863300      7.76564000       1
H               0.80758200     -5.39139000      5.68652000       1
H               6.81251000      1.72749000     -3.68741000       1
C               1.50747000     -6.63167000      4.12551000       6
I              -5.20547000     -6.04105000     -0.04269090      53
H               1.04329000     -7.18881000      3.30844000       1
H              -4.29507000     -5.02196000     -4.64686000       1
I              -1.92582000     -3.54604000      7.04313000      53
H               0.39986500     -7.25609000     -3.68741000       1
H              -4.23946000     -5.87689000      3.73342000       1
H              -0.17752400     -1.17206000     -8.08052000       1
N              -4.80284000      6.58674000      0.62860600       7
I              -1.98609000      4.79074000     -6.32428000      53
I               7.63786000      2.94252000     -0.04269090      53
H              -5.19059000      2.80535000     -5.70427000       1
H               0.82927100     -2.47940000     -7.79217000       1
N              -6.01596000      3.04327000      4.89615000       7
I               4.47387000      0.24737400     -7.04144000      53
H               7.45593000      1.79476000      3.30844000       1
H               2.09567000     -7.23930000     -3.66747000       1
H               7.95432000     -2.17989000      1.63844000       1
H               6.27248000      3.66049000      4.28231000       1
N               8.07660000     -2.39684000      0.62860600       7
H               6.17994000      2.34728000      5.30208000       1
H              -0.23270000     -6.63630000      5.30208000       1
H               1.25815000     -6.17823000     -5.70427000       1
H               7.80871000     -3.38613000      0.45770100       1
I               1.20690000      7.26059000      4.29897000      53
H              -5.20297000     -6.18799000     -2.71447000       1
H              -4.92512000      6.80369000      1.63844000       1
H               7.64036000      2.79558000     -2.71447000       1
H               2.11976000     -1.98259000      8.09562000       1
H               1.13844000      8.53292000     -0.02386490       1
I              -1.98068000     -7.96672000     -2.61845000      53
H              -6.10479000      3.94880000     -4.66416000       1
I              -8.46921000      0.17031300      1.82526000      53
H              -6.58891000      3.66049000      4.28231000       1
I               1.17180000      7.37388000     -4.40878000      53
N               0.46600400     -1.86203000     -8.53189000       7
C               1.46433000     -1.23183000      8.54133000       6
H              -5.64116000      3.59218000      5.68652000       1
P              -2.01651000      7.29761000      4.44975000      15
P              -2.05978000      7.31940000     -4.40695000      15
N               7.65397000      2.33760000     -3.64533000       7
I               4.46265000     -4.19284000     -6.32428000      53
H               2.10883000     -0.54186700     -8.55655000       1
H              -6.68144000      2.34728000      5.30208000       1
P              -8.43204000      2.79582000      0.03186210      15
I              -8.42943000      1.01685000     -2.61845000      53
I               7.65564000     -1.72298000      4.29897000      53
N               6.84542000      3.04327000      4.89615000       7
I               7.62054000     -1.60970000     -4.40878000      53
H               2.03104000     -7.31167000      4.79958000       1
H              -0.22039900     -2.49720000      8.62785000       1
C              -5.18563000     -5.64467000     -4.75120000       6
I               4.50487000     -3.54604000      7.04313000      53
I               4.44460000      4.79074000     -6.32428000      53
I              -1.94387000      5.43754000      7.04313000      53
H               6.75659000      3.94880000     -4.66416000       1
H              -5.44449000      7.24805000     -1.26880000       1
H              -6.08674000     -5.03478000     -4.66416000       1
N              -5.18936000     -6.64597000     -3.64533000       7
H              -4.33502000     -7.23930000     -3.66747000       1
I              -2.02047000     -8.81326000      1.82526000      53
C              -4.92322000     -6.63167000      4.12551000       6
C               7.92011000      2.35190000      4.12551000       6
H               6.29053000     -5.32308000      4.28231000       1
I              -8.48148000     -3.47739000     -1.74526000      53
I               1.13632000      2.84954000      8.81550000      53
C              -5.61313000      7.50761000     -0.22140300       6
H               9.08266000     -2.30634000      0.38799000       1
H              -4.31093000     -1.98259000      8.09562000       1
H               8.50831000      1.74427000     -3.66747000       1
C               1.55822000     -1.15984000     -9.26744000       6
H              -6.57085000     -5.32308000      4.28231000       1
N               0.37210600     -1.93402000      9.27688000       7
H              -5.41731000     -0.60863300      7.76564000       1
H               2.01493000     -0.61385600      9.25222000       1
I               4.45001000     -7.96672000     -2.61845000      53
H              -0.12650000     -2.42521000     -9.18092000       1
H               1.17454000     -9.43422000     -0.02386490       1
P              -2.01749000      2.87322000     -8.84831000      15
I               1.23022000      2.92153000     -8.99328000      53
I              -2.05657000      9.15389000      1.82526000      53
H              -5.38740000     -7.18881000      3.30844000       1
P               4.37091000      7.31940000     -4.40695000      15
H              -4.32186000     -0.54186700     -8.55655000       1
H               7.79066000      5.59744000      0.45770100       1
C               7.65770000      3.33890000     -4.75120000       6
P               4.41418000      7.29761000      4.44975000      15
P              -2.11139000      2.80123000      8.96046000      15
H               6.19515000      7.37977000      0.03813900       1
H               6.77464000     -5.03478000     -4.66416000       1
H              -5.62311000     -5.39139000      5.68652000       1
P              -8.42915000     -1.68596000      4.44975000      15
P              -8.47242000     -1.66418000     -4.40695000      15
I               7.65591000     -6.04105000     -0.04269090      53
N              -5.99791000     -5.94030000      4.89615000       7
H              -4.39965000     -7.31167000      4.79958000       1
I              -8.35874000     -4.35767000      2.64948000      53
H              -0.27142300     -1.24405000      9.72825000       1
H               8.44368000      1.67190000      4.79958000       1
H               7.22022000      3.59218000      5.68652000       1
H              -5.17254000     -6.17823000     -5.70427000       1
H               8.60387000      3.10668000      3.73342000       1
H              -5.60142000     -2.47940000     -7.79217000       1
