200
cutoff_factor=1.20000000 nneightol=1.20000000 Lattice="29.70747000       0.00000000       0.00000000       0.00000000      28.57176000       0.00000000       0.00000000       0.00000000      29.45114000" Properties=species:S:1:pos:R:3:Z:I:1
P              -1.06735000      0.12042000      0.02698300      15
I               0.83954200     -2.37518000      0.41025000      53
I               1.50099000      2.08814000     -0.07957910      53
I              -0.92953000     -0.14435500     -3.17332000      53
H               2.02162000      0.29375200      2.76424000       1
I              -1.49556000      0.46895000      3.18496000      53
H               2.98458000      0.95300900     -1.90668000       1
H               2.18534000     -1.00745000     -3.09012000       1
I              -2.90913000      2.77990000     -0.50348200      53
I              -3.72535000     -1.73193000     -0.02419550      53
H              -1.02072000      3.39685000     -2.30206000       1
H              -1.55255000     -3.30356000     -2.29397000       1
H              -0.44958600      3.72405000      2.19242000       1
C               3.01520000      0.62009400      3.08000000       6
H               3.45943000      1.27597000      2.32804000       1
N               3.63435000      0.41730100     -2.51989000       7
H               4.15102000     -0.23940200     -1.89757000       1
C               2.88744000     -0.32689800     -3.57701000       6
H               3.97076000     -1.08262000      2.31927000       1
H              -1.70386000     -3.94892000      2.11219000       1
H              -0.12324300     -3.77821000      2.94665000       1
H               2.35146000      0.39597900     -4.19629000       1
N              -0.59140900      3.98119000     -3.04878000       7
H               0.38309800      4.22731000     -2.77941000       1
N               3.88221000     -0.58273100      3.22538000       7
H              -4.74927000     -0.23940200     -1.89757000       1
H               2.96205000      1.12680000      4.04636000       1
H              -0.53078200      3.43209000     -3.92824000       1
C              -1.53340000     -3.85329000     -3.23783000       6
H              -1.07024000     -3.25049000     -4.02214000       1
C              -0.94661500     -4.45712000      2.71364000       6
H               4.31039000      1.07559000     -2.94702000       1
H              -4.05618000     -0.30993800      3.50928000       1
H               3.47119000     -1.21844000      3.93816000       1
C              -0.82001200      4.60970000      2.71364000       6
I               5.17494000     -1.73193000     -0.02419550      53
P               3.31360000     -4.37417000     -0.00050990      15
H              -4.92953000     -1.08262000      2.31927000       1
H              -4.58990000      1.07559000     -2.94702000       1
H               0.25649600     -4.83952000     -2.77941000       1
H               3.60613000     -0.88648900     -4.18002000       1
H              -2.22650000      3.52626000      3.80383000       1
H              -1.57726000      5.11791000      2.11219000       1
H              -0.57618900     -5.34277000      2.19242000       1
P               3.44020000      4.69266000     -0.00050990      15
N              -5.26594000      0.41730100     -2.51989000       7
I               2.79432000     -4.15430000     -3.15817000      53
H              -0.75244800      3.69343000      4.60324000       1
N              -1.44380000      4.17804000      3.99194000       7
N              -0.71801100     -5.08564000     -3.04878000       7
H               4.84411000     -0.30993800      3.50928000       1
N              -5.01808000     -0.58273100      3.22538000       7
H              -2.54417000     -4.14852000     -3.52865000       1
H              -5.44086000      1.27597000      2.32804000       1
H               0.00335982      5.28861000      2.94665000       1
H              -1.14732000     -5.66997000     -2.30206000       1
H              -5.91571000      0.95300900     -1.90668000       1
C              -1.40679000      5.21354000     -3.23783000       6
I               1.54406000     -1.81823000      5.83865000      53
H              -1.42595000      5.76326000     -2.29397000       1
H              -1.94658000     -4.08189000      4.53369000       1
P              -1.01635000      0.04836470      6.33673000      15
P              -1.31434000      0.01714200     -6.31602000      15
N              -1.57040000     -4.88879000      3.99194000       7
H              -2.41757000      4.91830000     -3.52865000       1
I               2.92092000      4.91253000     -3.15817000      53
I               3.81189000      4.34051000      3.16302000      53
I               5.99116000      2.77990000     -0.50348200      53
C              -5.88509000      0.62009400      3.08000000       6
I               0.96614500      6.69164000      0.41025000      53
I               3.68529000     -4.72632000      3.16302000      53
H              -5.29416000     -0.88648900     -4.18002000       1
H              -5.42910000     -1.21844000      3.93816000       1
H              -0.65738500     -5.63473000     -3.92824000       1
I               0.52501900      2.71777000     -6.32402000      53
I               0.82300400      2.74900000      6.32873000      53
H              -1.81998000      4.98493000      4.53369000       1
I              -3.03574000     -6.28693000     -0.50348200      53
C              -6.01285000     -0.32689800     -3.57701000       6
P              -5.58669000     -4.37417000     -0.00050990      15
I               1.37439000     -6.97868000     -0.07957910      53
H              -2.35310000     -5.54056000      3.80383000       1
H              -0.87905100     -5.37339000      4.60324000       1
H              -0.94363800      5.81634000     -4.02214000       1
I               1.24607000     -1.84945000     -6.81410000      53
P              -5.46009000      4.69266000     -0.00050990      15
H              -5.93824000      1.12680000      4.04636000       1
I              -3.86199000      1.99529000     -5.85664000      53
I              -2.94073000     -2.51917000      6.26572000      53
I              -5.08840000      4.34051000      3.16302000      53
H              -6.87867000      0.29375200      2.76424000       1
H              -6.71495000     -1.00745000     -3.09012000       1
I              -3.23872000     -2.55039000     -6.38703000      53
I              -7.39930000      2.08814000     -0.07957910      53
I              -5.21500000     -4.72632000      3.16302000      53
H              -6.54883000      0.39597900     -4.19629000       1
P               7.83294000      0.12042000      0.02698300      15
I              -3.56400000      2.02651000      6.79611000      53
I               5.03830000      1.99529000     -5.85664000      53
I              -6.10597000     -4.15430000     -3.15817000      53
I               7.40473000      0.46895000      3.18496000      53
I              -3.59875000      7.33490000     -0.02419550      53
P               3.03429000     -4.49741000     -6.29824000      15
I              -5.97937000      4.91253000     -3.15817000      53
H               6.35612000     -4.14852000     -3.52865000       1
H               7.34774000     -3.30356000     -2.29397000       1
P               3.16089000      4.56941000     -6.29824000      15
I              -8.06075000     -2.37518000      0.41025000      53
P               3.33228000     -4.46619000      6.35451000      15
H               6.67380000      3.52626000      3.80383000       1
H               7.19643000     -3.94892000      2.11219000       1
P               3.45888000      4.60063000      6.35451000      15
I               7.97076000     -0.14435500     -3.17332000      53
I               5.86455000     -6.28693000     -0.50348200      53
H               3.33283000     -7.79086000      2.32804000       1
H               2.85798000     -8.11382000     -1.90668000       1
H               6.48272000      4.91830000     -3.52865000       1
H               2.64945000      0.42720200      8.45646000       1
I               5.33629000      2.02651000      6.79611000      53
H               7.87957000      3.39685000     -2.30206000       1
H              -1.05043000      3.66221000     -8.04951000       1
I               5.66157000     -2.55039000     -6.38703000      53
C               7.36690000     -3.85329000     -3.23783000       6
H               2.31194000      8.05937000     -3.09012000       1
I               0.69640200     -6.31783000      6.32873000      53
I               0.39841600     -6.34905000     -6.32402000      53
I               5.95956000     -2.51917000      6.26572000      53
P              -1.19395000     -8.94640000      0.02698300      15
I               5.30154000      7.33490000     -0.02419550      53
H               2.66406000      1.09558000     -8.60639000       1
H               7.32304000      5.11791000      2.11219000       1
P              -0.94074900      9.18725000      0.02698300      15
H              -0.77225500     -3.21926000      8.63061000       1
H               6.95371000     -4.08189000      4.53369000       1
H               4.09736000      7.98421000      2.31927000       1
I              -1.62216000     -8.59788000      3.18496000      53
H               2.83545000     -7.94002000      4.04636000       1
H               3.17321000     -1.24967000     -8.71459000       1
H               3.90411000     -0.85526600      8.47273000       1
H              -2.24457000     -4.11312000     -8.11906000       1
H               6.54719000     -5.54056000      3.80383000       1
H               7.83005000     -3.25049000     -4.02214000       1
H              -0.23279600      3.46331000      8.72451000       1
H               1.89502000     -8.77307000      2.76424000       1
N               7.45649000      4.17804000      3.99194000       7
C               2.88860000     -8.44673000      3.08000000       6
I               1.67066000      7.24860000      5.83865000      53
H               4.18378000     -7.99123000     -2.94702000       1
H               3.59780000      7.84838000      3.93816000       1
I              -2.81413000      6.54765000      6.26572000      53
H               8.45071000      3.72405000      2.19242000       1
I              -0.63154400     -0.11313200      9.47943000      53
I              -0.80292700      8.92247000     -3.17332000      53
C               7.95368000     -4.45712000      2.71364000       6
P              -5.44141000      4.60063000      6.35451000      15
P              -5.56801000     -4.46619000      6.35451000      15
I              -7.35623000     -1.81823000      5.83865000      53
H              -4.80293000      7.98421000      2.31927000       1
C               3.18543000     -0.29567500      9.07574000       6
I              -3.11212000      6.51643000     -6.38703000      53
I              -1.79355000      0.43772700     -9.46779000      53
N               3.50775000     -8.64952000     -2.51989000       7
P              -5.73940000      4.56941000     -6.29824000      15
N               7.32989000     -4.88879000      3.99194000       7
C               7.49350000      5.21354000     -3.23783000       6
C               8.08028000      4.60970000      2.71364000       6
N               8.30888000      3.98119000     -3.04878000       7
P              -5.86600000     -4.49741000     -6.29824000      15
H               7.47434000      5.76326000     -2.29397000       1
H              -4.71651000     -7.99123000     -2.94702000       1
H              -2.11796000      4.95371000     -8.11906000       1
N              -1.74178000      4.14682000     -8.66081000       7
H              -1.17704000     -5.40461000     -8.04951000       1
H               7.08031000      4.98493000      4.53369000       1
I              -1.05613000     -9.21118000     -3.17332000      53
H              -2.52448000      3.49504000     -8.84892000       1
H              -5.56746000     -7.79086000      2.32804000       1
H               8.36951000      3.43209000     -3.92824000       1
P               7.58595000      0.01714200     -6.31602000      15
H              -4.99618000     -0.85526600      8.47273000       1
H               7.75297000     -5.66997000     -2.30206000       1
H               2.22486000     -8.67085000     -4.19629000       1
H              -8.51719000      4.22731000     -2.77941000       1
C               3.01404000      8.73993000     -3.57701000       6
H               3.73273000      8.18034000     -4.18002000       1
N               4.00882000      8.48409000      3.22538000       7
H               2.48333000     -0.97623100      9.56263000       1
C               2.71722000      0.58887200     -9.57275000       6
P              -9.96764000      0.12042000      0.02698300      15
H               4.27763000      8.82742000     -1.89757000       1
H               2.14823000      9.36058000      2.76424000       1
H               8.77705000     -3.77821000      2.94665000       1
I              -3.98859000     -7.07153000     -5.85664000      53
I               1.37268000      7.21737000     -6.81410000      53
I               9.73983000     -2.37518000      0.41025000      53
H               1.72364000      0.26253000     -9.88851000       1
H               8.14784000      3.69343000      4.60324000       1
N               3.58423000     -0.61395300     -9.42737000       7
N               8.18228000     -5.08564000     -3.04878000       7
P               7.88394000      0.04836470      6.33673000      15
