200
cutoff_factor=1.20000000 nneightol=1.20000000 Lattice="28.26552000       0.00000000       0.00000000       0.00000000      28.64130000       0.00000000       0.00000000       0.00000000      29.32265000" Properties=species:S:1:pos:R:3:Z:I:1
P               0.48764600     -0.55881400     -0.00812180      15
I              -2.21086000      1.18767000     -0.18727300      53
I               2.25329000      2.16247000      0.03959730      53
I               0.29108900     -0.59297200      3.19058000      53
I               0.77369600     -0.50335300     -3.19052000      53
I              -1.25684000     -3.28167000     -0.03212660      53
H              -3.28153000      0.12340700      1.98194000       1
I               3.18956000     -2.36065000      0.22558800      53
H               1.29740000      3.08856000     -2.18784000       1
H              -2.33020000     -0.12378500      3.33413000       1
H              -2.58513000     -0.56551200     -3.20911000       1
H               1.32643000      3.58087000      1.91526000       1
H               0.99766700      2.31949000     -3.63742000       1
N              -3.29787000      0.09686930      3.02232000       7
H               0.11416700     -4.22630000      1.90141000       1
N               1.20729000      3.24197000     -3.21464000       7
H              -0.35327200      3.04846000      3.60575000       1
H               3.40020000     -0.99063000     -3.33711000       1
H               0.41129600     -3.76359000     -3.07117000       1
H               3.66856000     -0.60970000      3.20331000       1
H               1.58806000     -3.88401000      2.60918000       1
H               4.35096000     -1.24540000     -1.98736000       1
H              -3.50906000      1.06242000      3.34583000       1
H              -3.82281000      0.73393300     -3.20116000       1
C              -3.57371000     -0.26574300     -3.56423000       6
H              -0.80259700      3.89175000     -3.16512000       1
N               0.89240300      4.33853000      2.48841000       7
H               0.12618700      4.73616000      1.90141000       1
H              -4.59506000     -1.24540000     -1.98736000       1
N               0.88038300     -4.62393000      2.48841000       7
C               0.38861600      3.82687000      3.79795000       6
N               4.36356000     -1.23001000     -3.02697000       7
H               2.14316000      3.53840000     -3.55403000       1
H              -4.01105000     -1.88151000      3.18995000       1
P              -3.89975000      3.90722000     -0.00155500      15
C               0.15571900      4.25221000     -3.54583000       6
N              -4.58246000     -1.23001000     -3.02697000       7
C              -4.28199000     -0.88866100      3.55616000       6
H               1.23431000      3.42127000      4.35596000       1
I              -1.24482000      5.68079000     -0.03212660      53
H               1.31441000     -5.38159000      1.91526000       1
C               0.14369900     -4.71025000     -3.54583000       6
H              -3.61310000     -0.29633600     -4.65559000       1
H               1.60008000      5.07844000      2.60918000       1
C               4.66403000     -0.88866100      3.55616000       6
H              -4.38281000     -2.20215000     -3.33834000       1
H               5.66449000      0.12340700      1.98194000       1
H              -0.81461600     -5.07071000     -3.16512000       1
H               0.42331600      5.19887000     -3.07117000       1
H               4.56321000     -2.20215000     -3.33834000       1
H               5.12321000      0.73393300     -3.20116000       1
H              -0.07371310     -4.30242000      4.33951000       1
H               4.93497000     -1.88151000      3.18995000       1
H              -5.27746000     -0.60970000      3.20331000       1
I              -5.75646000     -2.36065000      0.22558800      53
I              -3.94539000      3.70415000      3.19091000      53
H              -4.24058000     -0.85905800      4.64740000       1
H               0.11684500      4.36681000     -4.63161000       1
H              -0.06169320      4.66004000      4.33951000       1
P               5.04627000      3.90722000     -0.00155500      15
P              -3.91177000     -5.05524000     -0.00155500      15
C               0.37659600     -5.13559000      3.79795000       6
H               1.28538000     -5.87390000     -2.18784000       1
N               5.64815000      0.09686930      3.02232000       7
P               0.43223000     -0.63732900      6.40511000      15
C               5.37231000     -0.26574300     -3.56423000       6
H               5.43696000      1.06242000      3.34583000       1
P               0.55671300     -0.54726300     -6.44546000      15
H               0.10482500     -4.59565000     -4.63161000       1
H              -5.54582000     -0.99063000     -3.33711000       1
I              -4.14288000      4.10050000     -3.18215000      53
H               4.70544000     -0.85905800      4.64740000       1
N               1.19527000     -5.72048000     -3.21464000       7
H               2.13114000     -5.42406000     -3.55403000       1
I              -1.47489000      1.90734000     -6.39556000      53
I               6.73516000      1.18767000     -0.18727300      53
I              -2.03632000      1.37345000      6.41221000      53
H              -0.36529200     -5.91400000      3.60575000       1
I               5.00063000      3.70415000      3.19091000      53
I              -6.69273000      2.16247000      0.03959730      53
I               4.80314000      4.10050000     -3.18215000      53
H               5.33293000     -0.29633600     -4.65559000       1
I              -1.89836000     -2.56180000     -6.32972000      53
P               5.03425000     -5.05524000     -0.00155500      15
I              -4.15490000     -4.86196000     -3.18215000      53
H               6.36089000     -0.56551200     -3.20911000       1
H               1.22229000     -5.54119000      4.35596000       1
I               2.24127000     -6.79999000      0.03959730      53
I               3.00106000      1.50704000     -6.35779000      53
I               2.45088000      1.80978000      6.51765000      53
I              -3.95741000     -5.25831000      3.19091000      53
I               3.20158000      6.60180000      0.22558800      53
I              -1.60774000     -3.08384000      6.48958000      53
H               6.61582000     -0.12378500      3.33413000       1
I               4.79112000     -4.86196000     -3.18215000      53
I               2.56046000     -2.99813000     -6.43516000      53
I               2.86234000     -2.68354000      6.45181000      53
H               0.98564800     -6.64297000     -3.63742000       1
I               4.98861000     -5.25831000      3.19091000      53
I              -2.22288000     -7.77479000     -0.18727300      53
I               7.68918000     -3.28167000     -0.03212660      53
P               0.49966600      8.40365000     -0.00812180      15
H              -6.80286000      3.53840000     -3.55403000       1
P              -8.45838000     -0.55881400     -0.00812180      15
P              -4.04007000      3.82431000      6.40191000      15
P              -3.90499000      3.95355000     -6.44226000      15
H              -7.64862000      3.08856000     -2.18784000       1
H              -7.61959000      3.58087000      1.91526000       1
H              -4.37079000      6.76031000     -3.33834000       1
H              -7.35796000     -3.88401000      2.60918000       1
H              -3.99903000      7.08095000      3.18995000       1
I              -5.74444000      6.60180000      0.22558800      53
I              -8.17233000     -0.50335300     -3.19052000      53
H               4.57523000      6.76031000     -3.33834000       1
I              -5.94496000      1.50704000     -6.35779000      53
I              -1.59572000      5.87862000      6.48958000      53
P               4.90596000      3.82431000      6.40191000      15
I               0.30310800      8.36949000      3.19058000      53
N              -7.73874000      3.24197000     -3.21464000       7
H               0.36821900      3.73182000     -8.19997000       1
H              -7.94835000      2.31949000     -3.63742000       1
P              -3.91701000     -5.00891000     -6.44226000      15
I               0.78571600      8.45911000     -3.19052000      53
H               4.36298000      7.71706000     -1.98736000       1
P               5.04103000      3.95355000     -6.44226000      15
H              -3.11493000     -0.95030600     -8.49141000       1
I               2.57248000      5.96433000     -6.43516000      53
P              -4.05209000     -5.13814000      6.40191000      15
H               0.73614700      4.07524000      8.19178000       1
H              -4.58304000      7.71706000     -1.98736000       1
I              -1.88634000      6.40066000     -6.32972000      53
H               4.94699000      7.08095000      3.18995000       1
I              -8.65493000     -0.59297200      3.19058000      53
I              -6.08369000     -2.68354000      6.45181000      53
H              -3.52108000     -7.90004000      3.34583000       1
H               3.41222000      7.97183000     -3.33711000       1
H              -7.34594000      5.07844000      2.60918000       1
H               4.45407000     -0.22407000      8.21576000       1
H              -2.57311000      8.39695000     -3.20911000       1
H              -4.49195000     -0.22407000      8.21576000       1
I              -6.49514000      1.80978000      6.51765000      53
N               4.37558000      7.73245000     -3.02697000       7
H              -6.81488000     -5.42406000     -3.55403000       1
P               9.43367000     -0.55881400     -0.00812180      15
I               2.87436000      6.27892000      6.45181000      53
N              -4.57044000      7.73245000     -3.02697000       7
N              -8.05362000      4.33853000      2.48841000       7
H              -7.71171000      3.42127000      4.35596000       1
I               6.90970000      1.37345000      6.41221000      53
H              -7.63161000     -5.38159000      1.91526000       1
P               0.47562600     -9.52127000     -0.00812180      15
I              -6.38556000     -2.99813000     -6.43516000      53
I              -6.70475000     -6.79999000      0.03959730      53
P               4.89394000     -5.13814000      6.40191000      15
H               8.14342000      3.89175000     -3.16512000       1
H               0.72412700     -4.88722000      8.19178000       1
I               7.70120000      5.68079000     -0.03212660      53
P               5.02901000     -5.00891000     -6.44226000      15
H              -4.41094000      0.28846500     -8.50786000       1
N              -8.06564000     -4.62393000      2.48841000       7
H              -3.83483000     -8.22853000     -3.20116000       1
I              -1.48691000     -7.05512000     -6.39556000      53
H              -3.29355000     -8.83905000      1.98194000       1
H               4.53508000      0.28846500     -8.50786000       1
H              -2.46564000     -1.05248000      9.29334000       1
H               3.68058000      8.35276000      3.20331000       1
I               0.19433900     -0.49037800      9.66522000      53
I               0.65138700     -0.66743100     -9.65646000      53
H              -2.31818000      8.83867000      3.33413000       1
H               0.35619900     -5.23064000     -8.19997000       1
H              -0.03356630      2.16942000      9.50903000       1
I               9.23711000     -0.59297200      3.19058000      53
C              -4.26997000      8.07380000      3.55616000       6
H               8.59275000      3.04846000      3.60575000       1
I               7.04766000     -2.56180000     -6.32972000      53
H              -8.53473000     -3.76359000     -3.07117000       1
H              -3.26951000      9.08587000      1.98194000       1
C              -3.96063000     -0.54470900     -9.04942000       6
H              -7.66064000     -5.87390000     -2.18784000       1
N              -3.30989000     -8.86559000      3.02232000       7
H              -2.34222000     -9.08624000      3.33413000       1
H              -8.83185000     -4.22630000      1.90141000       1
I               2.43886000     -7.15268000      6.51765000      53
C               4.67605000      8.07380000      3.55616000       6
C               0.32681100      3.70222000     -9.29121000       6
I               7.47113000      1.90734000     -6.39556000      53
I               0.76167600     -9.46581000     -3.19052000      53
H               0.59774900      2.70937000     -9.65743000       1
C              -3.56169000      8.69672000     -3.56423000       6
I               0.27906900     -9.55543000      3.19058000      53
H               8.13140000     -5.07071000     -3.16512000       1
N              -3.28585000      9.05933000      3.02232000       7
C              -8.55741000      3.82687000      3.79795000       6
H               1.08772000     -3.30916000     -9.50154000       1
I              -2.04834000     -7.58901000      6.41221000      53
H              -3.61113000     -2.27139000      9.20996000       1
H               5.42494000     -7.90004000      3.34583000       1
N              -7.75076000     -5.72048000     -3.21464000       7
H              -1.19658000      3.38095000      9.51026000       1
H               9.06019000     -4.22630000      1.90141000       1
