200
cutoff_factor=1.20000000 nneightol=1.20000000 Lattice="28.23657000       0.00000000       0.00000000       0.00000000      28.49226000       0.00000000       0.00000000       0.00000000      29.53665000" Properties=species:S:1:pos:R:3:Z:I:1
I              -0.04017450     -0.16848900     -0.03651720      53
P              -2.68159000      1.68940000     -0.03616770      15
H               1.45852000      2.26566000      1.72270000       1
P               1.80938000     -2.75426000     -0.01752550      15
H               2.26559000      1.29531000     -2.15007000       1
H               0.22571300      2.15178000      2.86197000       1
H               1.10051000      2.65620000     -2.24608000       1
H               0.38032900      0.77452000     -3.59137000       1
H               1.88004000      0.42174300      3.23976000       1
N               1.23510000      2.36462000      2.73159000       7
C               1.83346000      2.06241000     -2.79684000       6
H              -2.36399000     -1.11144000      3.19129000       1
H              -1.58456000     -3.20431000      2.23866000       1
H              -1.57005000     -2.78532000     -2.84142000       1
I              -0.76667100      4.22401000     -0.08212030      53
N               1.13847000      1.38787000     -3.93151000       7
C               2.08768000      1.45003000      3.54452000       6
I              -2.39542000      1.66529000      3.24310000      53
I              -2.75580000      1.50153000     -3.23529000      53
I               4.40789000     -0.92902700      0.17150300      53
H              -2.98476000     -2.92116000     -1.74607000       1
I              -4.50015000     -0.92902700      0.17150300      53
I               1.89173000     -2.78399000     -3.22403000      53
H              -3.59122000     -1.85556000      2.35769000       1
H               1.40916000      3.35984000      2.98232000       1
I               1.74937000     -2.95881000      3.24572000      53
I              -0.69917400     -4.72700000     -0.08212030      53
N              -2.97464000     -1.94849000      3.19527000       7
H              -3.26563000     -1.12966000     -3.37162000       1
C              -2.62915000     -3.04380000     -2.77155000       6
H               3.13502000      1.70040000      3.36090000       1
H               1.80444000      0.82805500     -4.50643000       1
H               2.61754000      2.70539000     -3.20342000       1
C              -2.19102000     -3.21436000      3.14562000       6
H               0.71865900      2.08652000     -4.58150000       1
I               3.65045000      3.54954000      0.07624530      53
H               1.84041000      1.59387000      4.59853000       1
H              -1.55139000     -3.25776000      4.02891000       1
N              -3.40020000     -2.12134000     -3.65381000       7
H              -3.55535000     -1.88952000      4.05725000       1
H              -2.79578000     -4.06808000     -3.11274000       1
H              -2.88829000     -4.05511000      3.13335000       1
H              -3.08845000     -2.21050000     -4.64085000       1
H               5.31681000     -1.85556000      2.35769000       1
H              -4.41733000     -2.33795000     -3.61125000       1
H               4.49071000     -2.33795000     -3.61125000       1
I              -5.25759000      3.54954000      0.07624530      53
H              -1.65206000      5.74671000      2.23866000       1
P               1.74188000      6.19675000     -0.01752550      15
P               6.22644000      1.68940000     -0.03616770      15
H              -2.86328000      4.88293000     -3.11274000       1
I               0.08345750     -0.14390800      6.47089000      53
H               1.47666000     -5.59118000      2.98232000       1
H              -2.95579000      4.89590000      3.13335000       1
I              -1.05519000     -1.03993000     -6.38000000      53
I               3.71795000     -5.40148000      0.07624530      53
H               5.64240000     -1.12966000     -3.37162000       1
H               1.16801000     -6.29481000     -2.24608000       1
H               5.92327000     -2.92116000     -1.74607000       1
H              -5.77302000      1.70040000      3.36090000       1
C              -2.25852000      5.73666000      3.14562000       6
N               5.50784000     -2.12134000     -3.65381000       7
H               5.35268000     -1.88952000      4.05725000       1
H              -3.05226000      6.02986000     -1.74607000       1
H              -1.63755000      6.16569000     -2.84142000       1
N               5.93339000     -1.94849000      3.19527000       7
I               1.68187000      5.99220000      3.24572000      53
C              -2.69665000      5.90721000     -2.77155000       6
H               1.52601000     -6.68536000      1.72270000       1
H              -6.64245000      1.29531000     -2.15007000       1
I               6.15224000      1.50153000     -3.23529000      53
P              -2.59753000      1.64832000      6.46408000      15
H              -1.61889000      5.69325000      4.02891000       1
I               3.36366000     -0.11599600     -6.32564000      53
I               1.82423000      6.16703000     -3.22403000      53
P               1.63114000     -2.81215000     -6.42729000      15
P               1.82063000     -2.79391000      6.43542000      15
N               1.30260000     -6.58640000      2.73159000       7
P              -2.92623000      1.69663000     -6.45595000      15
H               6.54405000     -1.11144000      3.19129000       1
H               0.29321000     -6.79924000      2.86197000       1
I              -0.21267900      3.44661000     -6.53114000      53
I               6.51262000      1.66529000      3.24310000      53
I              -5.19009000     -5.40148000      0.07624530      53
C               6.27888000     -3.04380000     -2.77155000       6
H               2.68504000     -6.24563000     -3.20342000       1
H              -6.29049000      2.70539000     -3.20342000       1
P              -7.09866000     -2.75426000     -0.01752550      15
C               1.90096000     -6.88861000     -2.79684000       6
P              -2.61409000     -7.26161000     -0.03616770      15
H              -7.02799000      0.42174300      3.23976000       1
H               5.81958000     -2.21050000     -4.64085000       1
I              -4.37385000     -1.04393000      6.36024000      53
C              -6.82035000      1.45003000      3.54452000       6
I               4.53418000     -1.04393000      6.36024000      53
C              -7.07457000      2.06241000     -2.79684000       6
H               6.01974000     -4.05511000      3.13335000       1
I              -0.86500800      4.34448000      6.56573000      53
H              -7.44952000      2.26566000      1.72270000       1
H               6.11226000     -4.06808000     -3.11274000       1
I              -0.79751000     -4.60654000      6.56573000      53
C               6.71702000     -3.21436000      3.14562000       6
I               3.62418000      3.42054000      6.51137000      53
I              -7.01630000     -2.78399000     -3.22403000      53
N              -3.04214000      7.00253000      3.19527000       7
H               2.33309000     -7.65570000     -2.15007000       1
H               0.78615600     -6.86450000     -4.58150000       1
H               7.32348000     -3.20431000      2.23866000       1
I              -2.32792000     -7.28573000      3.24310000      53
H               5.95225000      4.89590000      3.13335000       1
H              -3.65872000      7.09546000      2.35769000       1
H               7.33799000     -2.78532000     -2.84142000       1
H               6.04476000      4.88293000     -3.11274000       1
I              -7.15867000     -2.95881000      3.24572000      53
I              -5.54437000     -0.11599600     -6.32564000      53
H              -7.10360000      0.82805500     -4.50643000       1
N              -7.67294000      2.36462000      2.73159000       7
N              -3.46770000      6.82968000     -3.65381000       7
I              -0.14518200     -5.50440000     -6.53114000      53
H              -7.80753000      2.65620000     -2.24608000       1
I              -2.68830000     -7.44948000     -3.23529000      53
C               2.15518000     -7.50098000      3.54452000       6
H              -7.06762000      1.59387000      4.59853000       1
H               5.85578000      6.02986000     -1.74607000       1
N               1.20596000     -7.56314000     -3.93151000       7
H               3.20251000     -7.25061000      3.36090000       1
H               1.59091000      2.24997000      8.25052000       1
H               4.42321000      6.61306000     -3.61125000       1
H              -7.49887000      3.35984000      2.98232000       1
H              -4.48483000      6.61306000     -3.61125000       1
H              -3.15595000      6.74052000     -4.64085000       1
I              -0.10767200      8.78253000     -0.03651720      53
H              -2.43148000      7.83958000      3.19129000       1
N              -7.76957000      1.38787000     -3.93151000       7
I               4.24463000      4.34663000     -6.42048000      53
I               8.86786000     -0.16848900     -0.03651720      53
H               1.90791000     -7.35714000      4.59853000       1
H              -3.62285000      7.06150000      4.05725000       1
H               0.44782600     -8.17649000     -3.59137000       1
I              -8.94821000     -0.16848900     -0.03651720      53
P               5.98180000      1.69663000     -6.45595000      15
H               7.35664000     -3.25776000      4.02891000       1
I               4.31213000     -4.60438000     -6.42048000      53
C               6.21139000      5.90721000     -2.77155000       6
P               1.56364000      6.13886000     -6.42729000      15
I              -4.66340000      4.34663000     -6.42048000      53
I              -5.28386000      3.42054000      6.51137000      53
P               1.75313000      6.15710000      6.43542000      15
I               0.02732260     -9.11950000     -0.03651720      53
I               4.34039000      8.02199000      0.17150300      53
H               5.24932000      7.09546000      2.35769000       1
I              -4.59591000     -4.60438000     -6.42048000      53
H              -3.33313000      7.82135000     -3.37162000       1
I               8.14136000      4.22401000     -0.08212030      53
P               6.31050000      1.64832000      6.46408000      15
H              -2.83895000     -2.86660000     -8.29284000       1
H               0.60582300      2.60103000     -8.83413000       1
I              -4.56764000      8.02199000      0.17150300      53
H              -8.52771000      0.77452000     -3.59137000       1
I               3.69168000     -5.53047000      6.51137000      53
H              -3.44251000     -2.40402000      8.30987000       1
H               2.60978000      1.23278000     -8.86246000       1
C               6.64952000      5.73666000      3.14562000       6
H               1.94754000     -8.52927000      3.23976000       1
H              -6.22300000     -6.24563000     -3.20342000       1
H              -8.68232000      2.15178000      2.86197000       1
H              -2.35674000     -3.66249000      8.38494000       1
N               5.44034000      6.82968000     -3.65381000       7
I               8.20886000     -4.72700000     -0.08212030      53
P              -7.16615000      6.19675000     -0.01752550      15
H               1.87193000     -8.12296000     -4.50643000       1
H               7.25598000      5.74671000      2.23866000       1
H               0.26203400      2.12252000      9.28012000       1
P               6.29394000     -7.26161000     -0.03616770      15
H              -8.18938000      2.08652000     -4.58150000       1
N               1.27916000      2.33913000      9.23756000       7
N               5.86590000      7.00253000      3.19527000       7
H               5.28519000      7.06150000      4.05725000       1
H              -7.43138000     -5.59118000      2.98232000       1
H               9.13375000      2.15178000      2.86197000       1
H              -5.70552000     -7.25061000      3.36090000       1
H               1.27288000      0.43543300     -9.75802000       1
I              -7.08380000      6.16703000     -3.22403000      53
I              -7.22616000      5.99220000      3.24572000      53
H               7.27049000      6.16569000     -2.84142000       1
N              -3.02271000     -3.10267000      8.95986000       7
H               1.88359000      0.39238800      9.77863000       1
H              -1.54363000     -1.78516000      9.68795000       1
P              -7.08741000     -2.79391000      6.43542000      15
H               9.28836000      0.77452000     -3.59137000       1
H               5.75208000      6.74052000     -4.64085000       1
I              -5.21636000     -5.53047000      6.51137000      53
C               1.97015000      1.27618000     -9.74575000       6
H              -1.54435000     -2.76007000     -9.53047000       1
P              -2.53004000     -7.30270000      6.46408000      15
H               1.81255000      9.37276000      3.23976000       1
I              -2.33694000      1.67648000      9.66734000      53
H               7.28915000      5.69325000      4.02891000       1
N               1.18653000      2.54206000     -9.69610000       7
H              -7.38202000     -6.68536000      1.72270000       1
