200
cutoff_factor=1.20000000 nneightol=1.20000000 Lattice="29.53654000       0.00000000       0.00000000       0.00000000      28.93629000       0.00000000       0.00000000       0.00000000      29.07503000" Properties=species:S:1:pos:R:3:Z:I:1
I               0.82945900      0.77536400      0.74652800      53
P              -0.91732400     -1.91881000      0.71442200      15
H              -0.87038600      1.22585000     -2.78016000       1
I              -0.61315400     -2.08135000     -2.48928000      53
H              -0.58341300      3.03525000     -1.18068000       1
H               1.99483000     -1.53214000     -2.18747000       1
I              -3.62180000     -0.28251500      0.73942300      53
H              -0.39031400      2.70719000      2.52879000       1
H               0.76210000      2.91678000     -2.19234000       1
H               3.29267000     -1.45986000     -1.11928000       1
N              -0.25173400      3.14724000     -2.16006000       7
N               3.01211000     -1.32924000     -2.11227000       7
C              -1.02901000      2.26407000     -3.08033000       6
H               3.17096000     -0.33061500     -2.35525000       1
I               1.89857000     -3.70420000      0.68791700      53
H              -2.08619000      2.52777000     -3.00187000       1
P               3.68923000      2.47866000      0.71453000      15
I              -0.68646700     -2.22313000      3.91010000      53
N              -0.21576400      3.03695000      3.49993000       7
H              -0.85317500      1.24103000      4.40075000       1
H               0.79118600      2.87181000      3.70393000       1
I               3.36353000      2.34671000     -2.48399000      53
H              -0.67057300      2.42631000     -4.09939000       1
H              -0.37175300      4.14945000     -2.40830000       1
I              -2.48363000      4.15794000      0.63663100      53
H               2.92654000     -2.70670000      2.86917000       1
C              -1.07775000      2.30777000      4.47165000       6
H               2.05824000     -2.32715000      4.24079000       1
H               3.65261000     -0.56240200      3.76497000       1
I               5.27308000     -0.28251500      0.73942300      53
C               3.79996000     -2.23542000     -3.00070000       6
H              -2.12301000      2.49629000      4.21632000       1
H              -4.03505000     -1.99733000     -2.88518000       1
H              -0.41389000     -4.76570000     -2.40830000       1
H              -0.40566800      4.05826000      3.54061000       1
I              -2.52576000     -4.75721000      0.63663100      53
N               3.00864000     -2.56719000      3.89976000       7
H               3.60491000     -3.26790000     -2.70211000       1
I               1.94071000      5.21095000      0.68791700      53
H               3.48217000     -2.06974000     -4.03269000       1
H              -3.92809000     -1.78201000      3.84177000       1
I               3.38850000      2.59674000      3.91954000      53
P              -5.20565000      2.47866000      0.71453000      15
H              -5.60221000     -1.45986000     -1.11928000       1
I               1.09875000      0.47210900     -5.85009000      53
H               4.85983000     -1.99733000     -2.88518000       1
C               3.98859000     -1.49118000      4.23107000       6
H              -0.44780600     -4.85689000      3.54061000       1
H              -0.62555100     -5.87991000     -1.18068000       1
P              -0.85598700     -2.01821000     -5.71672000      15
H              -0.85840300      2.67761000      5.47576000       1
N              -0.29387100     -5.76791000     -2.16006000       7
H              -5.72392000     -0.33061500     -2.35525000       1
C              -5.09492000     -2.23542000     -3.00070000       6
N              -5.88277000     -1.32924000     -2.11227000       7
H               0.71996200     -5.99837000     -2.19234000       1
H               3.29552000     -3.47398000      4.31274000       1
H              -5.24227000     -0.56240200      3.76497000       1
I              -3.32778000     -0.05240800     -5.58513000      53
I              -5.53135000      2.34671000     -2.48399000      53
H               4.96679000     -1.78201000      3.84177000       1
C              -4.90629000     -1.49118000      4.23107000       6
H              -0.43245100     -6.20797000      2.52879000       1
H              -5.28997000     -3.26790000     -2.70211000       1
H               4.02632000     -1.38260000      5.31734000       1
N              -0.25790200     -5.87820000      3.49993000       7
H              -5.41271000     -2.06974000     -4.03269000       1
P              -0.87518600      6.99635000      0.71442200      15
H               0.74904900     -6.04335000      3.70393000       1
H              -5.96834000     -2.70670000      2.86917000       1
P               3.59715000      2.42282000     -5.72668000      15
I              -5.50638000      2.59674000      3.91954000      53
H               3.64705000      5.64726000     -2.70211000       1
I               1.59299000     -4.01920000     -5.85715000      53
I              -0.57101600      6.83381000     -2.48928000      53
H              -4.86856000     -1.38260000      5.31734000       1
H              -2.12833000     -6.38738000     -3.00187000       1
I               1.55170000     -0.07236380      7.21584000      53
H              -6.90005000     -1.53214000     -2.18747000       1
C              -1.07115000     -6.65109000     -3.08033000       6
P               3.64709000     -6.43649000      0.71453000      15
H               2.96868000      6.20845000      2.86917000       1
P              -0.93578400     -2.06262000      7.16315000      15
N              -5.88624000     -2.56719000      3.89976000       7
I              -2.89781000      0.41050900      7.03268000      53
I               6.41125000      4.15794000      0.63663100      53
H               3.33766000      5.44117000      4.31274000       1
H              -0.71271000     -6.48884000     -4.09939000       1
I              -2.81024000      4.41308000     -5.67399000      53
I               3.32139000     -6.56844000     -2.48399000      53
I              -0.64433000      6.69203000      3.91010000      53
I              -2.85237000     -4.50207000     -5.67399000      53
I               1.63513000      4.89595000     -5.85715000      53
H               6.80869000      2.52777000     -3.00187000       1
H              -5.59936000     -3.47398000      4.31274000       1
I               5.56710000     -0.05240800     -5.58513000      53
I              -6.99631000     -3.70420000      0.68791700      53
H               2.03696000      7.38301000     -2.18747000       1
I               6.36912000     -4.75721000      0.63663100      53
H              -2.16515000     -6.41886000      4.21632000       1
N               3.05078000      6.34796000      3.89976000       7
C              -1.11988000     -6.60738000      4.47165000       6
H               2.10037000      6.58800000      4.24079000       1
I              -8.06542000      0.77536400      0.74652800      53
I               3.34636000     -6.31841000      3.91954000      53
P              -5.29773000      2.42282000     -5.72668000      15
H              -5.24783000      5.64726000     -2.70211000       1
H              -0.33561900      3.10284000     -7.57249000       1
I               0.78732100     -8.13979000      0.74652800      53
H              -0.91252300     -7.68930000     -2.78016000       1
P               7.97756000     -1.91881000      0.71442200      15
H               3.33481000      7.45529000     -1.11928000       1
C               3.84210000      6.67973000     -3.00070000       6
P              -5.24779000     -6.43649000      0.71453000      15
H              -0.90054100     -6.23754000      5.47576000       1
P               3.54809000      2.41150000      7.17311000      15
H               6.77187000      2.49629000      4.21632000       1
H              -6.83664000     -2.32715000      4.24079000       1
H               3.63240000     -1.75210000     -7.41407000       1
N               3.05425000      7.58591000     -2.11227000       7
H              -3.99291000      6.91782000     -2.88518000       1
H               8.02449000      1.22585000     -2.78016000       1
I               1.07630000      4.37730000      7.30470000      53
I               1.03417000     -4.53785000      7.30470000      53
H               3.52430000      6.84542000     -4.03269000       1
H              -1.06642000      1.01146000     -8.57709000       1
I              -6.95417000      5.21095000      0.68791700      53
C               7.86587000      2.26407000     -3.08033000       6
I              -3.43419000     -4.01333000      7.03974000      53
H              -0.89531300     -7.67412000      4.40075000       1
H              -5.55722000      5.44117000      4.31274000       1
I               8.28173000     -2.08135000     -2.48928000      53
C              -5.05278000      6.67973000     -3.00070000       6
H              -8.13278000      2.91678000     -2.19234000       1
H               8.31147000      3.03525000     -1.18068000       1
H               4.90197000      6.91782000     -2.88518000       1
I              -5.57349000     -6.56844000     -2.48399000      53
H              -3.88595000      7.13314000      3.84177000       1
P              -0.81385000      6.89694000     -5.71672000      15
H              -5.92620000      6.20845000      2.86917000       1
C              -0.37335100      2.99426000     -8.65876000       6
H               2.36779000     -1.93342000     -8.67351000       1
H              -2.30370000      2.15829000     -8.64904000       1
I              -1.01558000     -1.83297000     -8.97029000      53
H              -1.00863000      2.35997000      8.85714000       1
I              -3.39205000      4.90182000      7.03974000      53
H               8.04170000      1.24103000      4.40075000       1
I               5.99707000      0.41050900      7.03268000      53
H              -5.26248000     -1.75210000     -7.41407000       1
P              -5.34679000      2.41150000      7.17311000      15
H               8.50457000      2.70719000      2.52879000       1
I              -5.54852000     -6.31841000      3.91954000      53
N              -1.35330000      1.91825000     -8.99007000       7
C               7.81713000      2.30777000      4.47165000       6
C               3.41306000     -2.12194000     -8.41818000       6
P               3.55502000     -6.49233000     -5.72668000      15
I               8.20841000     -2.22313000      3.91010000      53
H              -8.10369000      2.87181000      3.70393000       1
H              -5.56007000      7.45529000     -1.11928000       1
I              -3.57967000      8.63264000      0.73942300      53
I               6.08464000      4.41308000     -5.67399000      53
I               6.04251000     -4.50207000     -5.67399000      53
C               4.03073000      7.42397000      4.23107000       6
N               8.64315000      3.14724000     -2.16006000       7
H               0.60484700      2.70343000     -9.04806000       1
H               3.21310000      8.58454000     -2.35525000       1
N              -5.84410000      6.34796000      3.89976000       7
H               8.22431000      2.42631000     -4.09939000       1
H               5.00893000      7.13314000      3.84177000       1
H              -0.37775600     -5.81231000     -7.57249000       1
H              -5.37058000      6.84542000     -4.03269000       1
H               3.69137000     -2.05913000      8.79044000       1
I               0.87159600      9.69052000      0.74652800      53
I              -7.79613000      0.47210900     -5.85009000      53
H               3.63763000     -3.18868000     -8.48908000       1
I               5.46069000     -4.01333000      7.03974000      53
H               6.76655000     -6.38738000     -3.00187000       1
H               8.52313000      4.14945000     -2.40830000       1
I               9.72434000      0.77536400      0.74652800      53
N              -5.84063000      7.58591000     -2.11227000       7
C              -4.86415000      7.42397000      4.23107000       6
N               8.67912000      3.03695000      3.49993000       7
H               3.69475000      8.35275000      3.76497000       1
N              -9.14661000      3.14724000     -2.16006000       7
I              -3.66394000     -9.19767000      0.73942300      53
P              -0.89364700      6.85253000      7.16315000      15
H              -0.70932700      3.92304000     -9.12486000       1
H              -3.61289000     -1.55790000     -9.18590000       1
H              -9.28519000      2.70719000      2.52879000       1
H               8.48099000     -4.76570000     -2.40830000       1
H              -9.47829000      3.03525000     -1.18068000       1
P              -9.81220000     -1.91881000      0.71442200      15
I               3.84647000      2.26232000     -8.97973000      53
H               3.12883000     -9.24577000     -2.35525000       1
I              -9.50803000     -2.08135000     -2.48928000      53
H               8.48921000      4.05826000      3.54061000       1
P               8.03889000     -2.01821000     -5.71672000      15
H               4.06846000      7.53255000      5.31734000       1
H               8.03648000      2.67761000      5.47576000       1
C              -0.69084100      2.19429000      9.88913000       6
