200
cutoff_factor=1.20000000 nneightol=1.20000000 Lattice="29.20439000       0.00000000       0.00000000       0.00000000      29.05307000       0.00000000       0.00000000       0.00000000      29.30240000" Properties=species:S:1:pos:R:3:Z:I:1
I              -1.16014000      0.58868900     -0.47389600      53
H               0.74418500     -0.03954910      2.27934000       1
H              -0.52209900     -1.31177000      2.28040000       1
H               1.55006000     -2.10844000      1.23318000       1
C               0.44900700     -1.01171000      2.68069000       6
H               1.22997000     -0.52596000     -2.89959000       1
P               0.75498400      3.13838000     -0.73887300      15
N               1.46473000     -2.02304000      2.26594000       7
H              -0.03482900     -1.79937000     -2.90061000       1
I               3.35895000      1.29985000     -0.72620100      53
H              -2.65248000      2.07392000      1.61160000       1
C               0.81404800     -1.37724000     -3.44351000       6
H               0.42058400     -0.98251000      3.77209000       1
H               2.41127000     -1.78629000      2.62706000       1
P              -3.69992000     -1.33957000     -0.73867600      15
H               1.23261000     -2.97047000      2.62768000       1
I               0.73193600      3.35168000      2.49857000      53
I               2.67826000     -3.23004000     -0.86009400      53
I              -1.84754000     -3.93370000     -0.72561800      53
H               1.58047000     -2.13842000     -3.60582000       1
N              -3.38492000      2.80242000      1.57888000       7
H              -0.39155900     -0.17897600     -4.66776000       1
H              -2.99400000      3.59478000      1.02241000       1
I              -3.91372000     -1.31799000      2.49854000      53
N               0.33606900     -0.90147700     -4.77244000       7
H              -4.17463000      2.40771000      1.02130000       1
I               0.48881500      3.01303000     -3.91930000      53
H              -2.27890000      2.89547000     -3.73446000       1
H              -3.47315000      1.69600000     -3.73361000       1
I              -3.57533000     -1.07376000     -3.91922000      53
I              -1.89385000      5.03552000     -0.72561800      53
H               4.79443000      2.40771000      1.02130000       1
H               1.10950000     -0.48578800     -5.33785000       1
P               5.26913000     -1.33957000     -0.73867600      15
H              -0.07412540     -1.67732000     -5.33857000       1
I               5.05533000     -1.31799000      2.49854000      53
C              -3.81879000      3.23260000      2.93890000       6
I              -5.61011000      1.29985000     -0.72620100      53
H              -2.94957000      3.63233000      3.46392000       1
N              -3.20687000      2.62485000     -4.11484000       7
P               0.80129500     -5.83083000     -0.73887300      15
I              -1.23267000      0.66030000      5.77187000      53
H              -4.21457000      2.36073000      3.46253000       1
I               0.77824800     -5.61753000      2.49857000      53
H              -2.94769000     -5.37444000      1.02241000       1
H               4.75449000      2.36073000      3.46253000       1
H              -4.34271000      3.75688000     -2.74121000       1
I               2.63195000      5.73917000     -0.86009400      53
N               5.58413000      2.80242000      1.57888000       7
H              -3.07438000      2.49230000     -5.13995000       1
H               4.62634000      3.75688000     -2.74121000       1
H               4.37957000      3.99939000      2.83238000       1
P               0.64874000      3.19448000      5.71082000      15
H               3.77874000      3.33329000     -4.26559000       1
H               1.18630000      5.99874000      2.62768000       1
H              -4.58948000      3.99939000      2.83238000       1
I               5.39372000     -1.07376000     -3.91922000      53
C               5.15027000      3.23260000      2.93890000       6
C              -4.24540000      3.65912000     -3.82489000       6
I               3.28492000      1.33980000      5.79505000      53
H               6.31657000      2.07392000      1.61160000       1
H               5.49591000      1.69600000     -3.73361000       1
P              -3.75692000     -1.23435000      5.71076000      15
H              -2.90326000     -5.33689000      3.46392000       1
I               2.60334000     -3.15608000      5.69264000      53
H               5.97506000      3.59478000      1.02241000       1
C               4.72365000      3.65912000     -3.82489000       6
I              -6.29079000     -3.23004000     -0.86009400      53
H               1.50375000      6.86077000      1.23318000       1
I               0.53512700     -5.95618000     -3.91930000      53
N              -3.33861000     -6.16679000      1.57888000       7
I              -1.88906000     -3.86112000      5.79561000      53
H              -3.87770000     -4.36413000     -4.26660000       1
H               4.42588000     -4.96982000      2.83238000       1
H              -6.55779000     -1.78629000      2.62706000       1
H              -4.29640000     -5.21234000     -2.74121000       1
H              -4.54317000     -4.96982000      2.83238000       1
H              -3.92401000      4.60508000     -4.26660000       1
N               1.41842000      6.94618000      2.26594000       7
C              -3.77247000     -5.73662000      2.93890000       6
H              -2.23259000     -6.07374000     -3.73446000       1
H              -5.19032000      3.33329000     -4.26559000       1
H               4.67266000     -5.21234000     -2.74121000       1
I              -1.89255000      1.31655000     -7.17767000      53
H              -2.60617000     -6.89529000      1.61160000       1
N               5.76219000      2.62485000     -4.11484000       7
I               2.58410000      0.61151900     -7.07470000      53
H              -0.08114070      7.16984000     -2.90061000       1
C              -4.19909000     -5.31009000     -3.82489000       6
H              -7.41899000     -2.10844000      1.23318000       1
H              -4.12831000     -6.56150000      1.02130000       1
P               5.21213000     -1.23435000      5.71076000      15
I              -1.16465000     -3.15677000     -7.07526000      53
H               6.01949000      3.63233000      3.46392000       1
I               7.80891000      0.58868900     -0.47389600      53
H               1.53415000      6.83080000     -3.60582000       1
P               0.71624000      3.23829000     -7.15956000      15
H               5.09135000     -4.36413000     -4.26660000       1
I              -1.93538000      5.10809000      5.79561000      53
H               2.36496000      7.18292000      2.62706000       1
H              -0.56841100      7.65744000      2.28040000       1
H               3.82505000     -5.63593000     -4.26559000       1
H               5.04504000      4.60508000     -4.26660000       1
N              -7.50432000     -2.02304000      2.26594000       7
C               4.76996000     -5.31009000     -3.82489000       6
H               1.42151000     -1.98033000      7.73036000       1
H               6.02137000     -5.37444000      1.02241000       1
P               0.69505100     -5.77474000      5.71082000      15
I               7.12151000     -3.93370000     -0.72561800      53
H               6.69015000      2.89547000     -3.73446000       1
N              -3.16056000     -6.34437000     -4.11484000       7
H               5.89468000      2.49230000     -5.13995000       1
P              -3.80084000     -1.30210000     -7.15949000      15
H               4.84074000     -6.56150000      1.02130000       1
I              -5.68413000      1.33980000      5.79505000      53
C               5.19658000     -5.73662000      2.93890000       6
H              -7.73908000     -0.52596000     -2.89959000       1
C               0.76773600      7.59197000     -3.44351000       6
C               0.40269600      7.95750000      2.68069000       6
I               3.40526000     -7.66936000     -0.72620100      53
I              -1.11383000     -8.38052000     -0.47389600      53
H              -7.38859000     -2.13842000     -3.60582000       1
N               5.63044000     -6.16679000      1.57888000       7
I               2.55702000      5.81313000      5.69264000      53
P              -3.74623000      7.62964000     -0.73867600      15
H              -8.22487000     -0.03954910      2.27934000       1
H              -4.16825000     -6.60849000      3.46253000       1
I              -6.33710000      5.73917000     -0.86009400      53
H               0.57187800      0.13244500      8.60372000       1
H              -7.73644000     -2.97047000      2.62768000       1
H              -0.69443000     -1.13935000      8.60473000       1
I               3.28681000     -3.83628000     -7.09845000      53
I               7.07520000      5.03552000     -0.72561800      53
H              -5.14401000     -5.63593000     -4.26559000       1
H               6.06580000     -5.33689000      3.46392000       1
H              -3.02806000     -6.47691000     -5.13995000       1
P              -8.21407000      3.13838000     -0.73887300      15
H               0.37427200      7.98670000      3.77209000       1
H               8.44695000     -1.31177000      2.28040000       1
H              -3.42684000     -7.27322000     -3.73361000       1
H               4.80080000     -6.60849000      3.46253000       1
P               5.16822000     -1.30210000     -7.15949000      15
C              -8.15501000     -1.37724000     -3.44351000       6
I              -3.96003000      7.65123000      2.49854000      53
C              -8.52005000     -1.01171000      2.68069000       6
H               1.18366000      8.44325000     -2.89959000       1
H              -0.12043700      7.29189000     -5.33857000       1
N               1.28902000     -1.84779000      8.75547000       7
C               0.25048600     -0.81351800      9.04543000       6
I              -6.36572000     -3.15608000      5.69264000      53
H               4.37545000      2.81926000      7.53175000       1
H              -3.40998000      4.01079000      7.53246000       1
P               0.76255200     -5.73092000     -7.15956000      15
I              -1.21097000      5.81244000     -7.07526000      53
I              -8.23712000      3.35168000      2.49857000      53
H               0.69787300      8.92966000      2.27934000       1
H              -4.59360000      2.81926000      7.53175000       1
P               5.22282000      7.62964000     -0.73867600      15
H               0.79049700     -9.00876000      2.27934000       1
I               3.24050000      5.13294000     -7.09845000      53
N               0.28975800      8.06774000     -4.77244000       7
H              -8.54847000     -0.98251000      3.77209000       1
I               5.00902000      7.65123000      2.49854000      53
I              -5.56379000     -7.66936000     -0.72620100      53
H              -7.85956000     -0.48578800     -5.33785000       1
H               6.36288000     -6.89529000      1.61160000       1
I              -3.62164000      7.89546000     -3.91922000      53
H               2.21699000     -1.57716000      9.13586000       1
N               5.80850000     -6.34437000     -4.11484000       7
I              -6.38495000      0.61151900     -7.07470000      53
H               8.93422000     -1.79937000     -2.90061000       1
H               1.56991000     -0.86424900     -9.40640000       1
H               1.02274000     -2.77664000      9.13671000       1
I               0.87424600      3.42282000      8.95109000      53
H              -3.36367000     -4.95843000      7.53246000       1
H              -9.00388000     -1.79937000     -2.90061000       1
I              -1.20645000      9.55790000     -0.47389600      53
H               0.30491100     -2.13585000     -9.40779000       1
I               7.73639000      0.66030000      5.77187000      53
H               8.57749000     -0.17897600     -4.66776000       1
N              -4.18341000      3.59510000      8.09788000       7
H               6.73647000     -6.07374000     -3.73446000       1
I              -8.48024000      3.01303000     -3.91930000      53
C               9.41806000     -1.01171000      2.68069000       6
H              -9.49115000     -1.31177000      2.28040000       1
I              -5.68224000     -3.83628000     -7.09845000      53
H               5.54222000     -7.27322000     -3.73361000       1
N              -8.63298000     -0.90147700     -4.77244000       7
I              -3.98435000     -1.45961000      8.95102000      53
I               7.07999000     -3.86112000      5.79561000      53
H              -0.43787100      8.79024000     -4.66776000       1
H               9.71324000     -0.03954910      2.27934000       1
H              -2.93901000      2.35816000      9.26450000       1
H               1.27628000     -9.49517000     -2.89959000       1
C               0.70069100     -1.26398000     -9.93142000       6
H              -0.07000810     -0.49718600    -10.03790000       1
P              -8.16776000     -5.83083000     -0.73887300      15
N               4.78565000      3.59510000      8.09788000       7
H               1.06319000      8.48342000     -5.33785000       1
H              -6.60410000      7.18292000      2.62706000       1
