200
cutoff_factor=1.20000000 nneightol=1.20000000 Lattice="29.02515000       0.00000000       0.00000000       0.00000000      29.33136000       0.00000000       0.00000000       0.00000000      28.91307000" Properties=species:S:1:pos:R:3:Z:I:1
I              -1.21561000     -0.58515400      0.03035420      53
H               0.14715600      1.70107000      0.49391700       1
N               0.64509000      2.55176000      0.15771800       7
H               1.22193000      1.69130000     -1.67785000       1
C               0.64509900      2.55177000     -1.33478000       6
H              -0.38850300      2.48245000     -1.67785000       1
P               0.64513700     -2.64194000     -1.39082000      15
H               1.63077000      2.54589000      0.49392900       1
H               0.15732700      3.40832000      0.49392900       1
I               3.35667000     -2.05895000      0.03052690      53
H               1.10187000      3.48156000     -1.67784000       1
I               1.53847000     -0.36062800     -3.77228000      53
H              -0.25394700     -2.13083000      3.71277000       1
P              -3.85270000     -0.04507070      1.91340000      15
H               1.53765000     -2.11875000      3.71283000       1
I               2.54652000      0.59938700      3.72134000      53
H              -3.30558000     -0.85894000     -3.05692000       1
I              -1.99619000      1.88145000      3.72122000      53
H              -3.42132000      0.83583300     -3.05710000       1
C               0.64532500     -2.64196000      4.06018000       6
I               4.29211000      2.50880000      0.03039420      53
N              -3.85268000     -0.04500200     -3.40403000       7
I              -1.77707000     -3.00898000     -3.77235000      53
H               4.16459000     -0.11178300     -3.05705000       1
H               0.65231200     -3.67635000      3.71285000       1
I              -0.20577200     -5.28176000      0.03039420      53
I              -4.70364000      2.50880000      0.03039420      53
I              -2.32367000      3.23442000     -3.77234000      53
P               5.14305000     -0.04507070      1.91340000      15
I              -3.11243000     -2.61595000      3.72138000      53
H              -4.83117000     -0.11178300     -3.05705000       1
H              -3.39601000     -4.30899000     -1.67784000       1
P               0.64523800      2.55180000      5.15863000      15
I              -1.14120000      5.73160000      0.03052690      53
H              -2.81954000      0.03618610     -5.24300000       1
H              -2.86711000     -5.24466000      0.49392900       1
I              -5.63909000     -2.05895000      0.03052690      53
N               5.14308000     -0.04500200     -3.40403000       7
N               0.64527300     -2.64191000      5.55729000       7
H              -4.34056000     -4.38223000      0.49392900       1
H               0.45279800     -1.69543000      5.94328000       1
C              -3.85262000     -0.04514910     -4.89792000       6
H               1.28304000      1.73557000     -5.92005000       1
I               2.17420000     -4.55613000     -3.77234000      53
P               0.64521400     -2.64186000     -5.76776000      15
H              -0.38061500      2.40751000     -5.92007000       1
H               4.65520000     -4.38223000      0.49392900       1
H               5.57444000      0.83583300     -3.05710000       1
N              -3.85279000     -5.23879000      0.15771800       7
H               5.69018000     -0.85894000     -3.05692000       1
I               1.38546000      5.17460000      3.72138000      53
P              -3.85273000      5.14861000     -1.39082000      15
C              -3.85278000     -5.23878000     -1.33478000       6
I               2.72081000      4.78157000     -3.77235000      53
H              -3.84556000      4.11420000      3.71285000       1
H              -0.07817500     -3.28181000      5.94332000       1
C               0.64519700      2.55181000     -6.26442000       6
H               1.56116000     -2.94845000      5.94337000       1
H              -4.29868000     -0.98054100     -5.24295000       1
H              -4.43962000      0.80879800     -5.24314000       1
H               4.10937000     -5.30810000     -1.67785000       1
H               1.03313000      3.51231000     -5.91995000       1
H               4.55614000      0.80879800     -5.24314000       1
C               5.14313000     -0.04514910     -4.89792000       6
H               4.69708000     -0.98054100     -5.24295000       1
H              -3.27595000     -6.09925000     -1.67785000       1
H               5.59974000     -4.30899000     -1.67784000       1
N               5.14296000     -5.23879000      0.15771800       7
H              -2.96022000      5.67181000      3.71283000       1
H              -4.88639000     -5.30810000     -1.67785000       1
P               5.14302000      5.14861000     -1.39082000      15
I               2.50168000     -5.90910000      3.72122000      53
I               5.88333000     -2.61595000      3.72138000      53
C               5.14297000     -5.23878000     -1.33478000       6
I              -6.44923000      0.59938700      3.72134000      53
H              -4.35073000     -6.08949000      0.49391700       1
I              -0.21793100      0.24147900      7.50658000      53
H               5.15020000      4.11420000      3.71285000       1
C              -3.85255000      5.14859000      4.06018000       6
H               1.19230000      6.93161000     -3.05692000       1
H               1.07655000     -6.95472000     -3.05710000       1
H               4.64503000     -6.08949000      0.49391700       1
H              -2.87520000      0.03402530      7.20143000       1
I               7.78015000     -0.58515400      0.03035420      53
H              -7.36498000      2.54589000      0.49392900       1
I              -0.92399900     -0.73912900     -7.80544000      53
I               3.28228000      7.20540000      0.03035420      53
H               4.24394000      5.65972000      3.71277000       1
P               0.64518200      7.74548000      1.91340000      15
H               6.12865000     -5.24466000      0.49392900       1
H              -3.46476000     -4.27824000     -5.91995000       1
P               0.64517000     -7.83562000      1.91340000      15
H               6.17622000      0.03618610     -5.24300000       1
H              -7.77383000      1.69130000     -1.67785000       1
I               6.99957000      1.88145000      3.72122000      53
N               0.64524900      2.55190000     -7.76049000       7
H              -2.93671000      4.84210000      5.94337000       1
H              -4.75182000      5.65972000      3.71277000       1
H              -0.33328500      7.67877000     -3.05705000       1
H               0.22506700      1.66597000     -8.11077000       1
P              -3.85265000     -5.23875000      5.15863000      15
I               6.67209000      3.23442000     -3.77234000      53
I              -1.95136000     -7.19116000      3.72134000      53
C               5.14321000      5.14859000      4.06018000       6
I              -7.45729000     -0.36062800     -3.77228000      53
H              -4.27276000     -0.93101000      7.20133000       1
N              -3.85258000     -0.04507170      7.55160000       7
H              -4.40973000      0.76183300      7.20142000       1
H              -0.33329700     -7.90233000     -3.05705000       1
N               0.64520600      7.74555000     -3.40403000       7
N              -3.85260000      5.14864000      5.55729000       7
H               5.71980000     -6.09925000     -1.67785000       1
N               0.64519400     -7.83555000     -3.40403000       7
H               4.58603000      0.76183300      7.20142000       1
H              -7.45811000     -2.11875000      3.71283000       1
H               0.19920800      6.81001000     -5.24295000       1
I               3.07765000      2.95939000      7.50667000      53
P              -3.85266000      5.14869000     -5.76776000      15
H               4.72300000     -0.93101000      7.20133000       1
H               4.41971000      4.50874000      5.94332000       1
H               1.62263000      2.63100000     -8.11066000       1
I               3.07760000     -2.23418000     -7.80543000      53
I               7.21868000     -3.00898000     -3.77235000      53
H               0.05825280     -6.98175000     -5.24314000       1
N              -8.35067000      2.55176000      0.15771800       7
I              -6.27495000      4.78157000     -3.77235000      53
H              -4.57605000      4.50874000      5.94332000       1
I              -0.92394200      4.45445000      7.50665000      53
H               0.08809780      3.35881000     -8.11067000       1
H              -7.89389000      3.48156000     -1.67784000       1
C              -8.35066000      2.55177000     -1.33478000       6
I              -2.95940000      7.42992000     -3.77228000      53
P              -8.35062000     -2.64194000     -1.39082000      15
I               3.57393000     -3.33611000      7.50665000      53
P               5.14311000     -5.23875000      5.15863000      15
I               3.28226000     -8.37571000      0.03035420      53
H               4.11726000     -5.38305000     -5.92007000       1
H              -8.84860000      1.70107000      0.49391700       1
I              -6.82155000     -4.55613000     -3.77234000      53
C              -3.85269000     -5.23874000     -6.26442000       6
I              -1.42023000     -4.83116000      7.50667000      53
H              -3.21484000     -6.05498000     -5.92005000       1
H               6.03553000      5.67181000      3.71283000       1
H               8.60725000      2.48245000     -1.67785000       1
N               5.14318000     -0.04507170      7.55160000       7
N               5.14316000      5.14864000      5.55729000       7
H               5.53100000     -4.27824000     -5.91995000       1
C               0.64526000      7.74540000     -4.89792000       6
I              -5.71348000      7.20540000      0.03035420      53
H               1.07657000      8.62638000     -3.05710000       1
I              -0.21798800     -4.95210000     -7.80551000      53
H               1.19229000     -8.64949000     -3.05692000       1
C               0.64524700     -7.83570000     -4.89792000       6
P               5.14310000      5.14869000     -5.76776000      15
H               9.14291000      1.70107000      0.49391700       1
I               4.27990000      2.83846000     -7.80551000      53
H              -4.87850000     -5.38305000     -5.92007000       1
I              -1.95135000      8.38994000      3.72134000      53
H              -4.04507000      6.09512000      5.94328000       1
H               6.12056000      0.03402530      7.20143000       1
I              -2.95942000     -8.15118000     -3.77228000      53
H              -8.83843000      3.40832000      0.49392900       1
H               1.67834000     -7.75437000     -5.24300000       1
I              -6.49407000     -5.90910000      3.72122000      53
I              -4.71586000      2.83846000     -7.80551000      53
H               1.67835000      7.82674000     -5.24300000       1
C               5.14307000     -5.23874000     -6.26442000       6
C              -8.35043000     -2.64196000      4.06018000       6
I              -1.42028000      5.55637000     -7.80543000      53
I               7.85455000      5.73160000      0.03052690      53
H               8.74181000     -2.13083000      3.71277000       1
H               6.05904000      4.84210000      5.94337000       1
H               9.15308000      3.40832000      0.49392900       1
H              -2.93677000     -0.35147700     -9.36873000       1
C              -3.85263000     -0.04516220      9.04767000       6
I              -5.42183000     -3.33611000      7.50665000      53
H              -8.34344000     -3.67635000      3.71285000       1
H               4.95068000      6.09512000      5.94328000       1
H              -9.38426000      2.48245000     -1.67785000       1
H              -7.71271000      1.73557000     -5.92005000       1
P               0.64527000      2.55171000      9.54434000      15
I              -1.14121000     -9.84951000      0.03052690      53
I              -7.61030000      5.17460000      3.72138000      53
H               0.22512400      6.85954000      7.20133000       1
H              -3.21479000     -0.86140800      9.39204000       1
H              -7.43460000     -2.94845000      5.94337000       1
N               9.64085000      2.55176000      0.15771800       7
I              -5.91810000      2.95939000      7.50667000      53
H              -2.87526000     -5.15955000     -8.11066000       1
I              -5.91816000     -2.23418000     -7.80543000      53
H              -3.46470000      0.91533000      9.39214000       1
C               9.64085000      2.55177000     -1.33478000       6
H               0.08814160     -7.02872000      7.20142000       1
H               0.05826540      8.59935000     -5.24314000       1
P               9.64089000     -2.64194000     -1.39082000      15
N              -3.85264000     -5.23865000     -7.76049000       7
I              -5.71349000     -8.37571000      0.03035420      53
P              -8.35052000      2.55180000      5.15863000      15
H              -3.27594000      9.48185000     -1.67785000       1
H              -9.24970000     -2.13083000      3.71277000       1
