200
cutoff_factor=1.20000000 nneightol=1.20000000 Lattice="28.46926000       0.00000000       0.00000000       0.00000000      29.16049000       0.00000000       0.00000000       0.00000000      29.44741000" Properties=species:S:1:pos:R:3:Z:I:1
I              -0.11948900      1.51169000     -0.03916500      53
P               1.79242000     -1.04687000      0.01321100      15
I              -0.82382600     -2.94969000     -0.10320300      53
H              -1.92968000     -1.60832000      1.75681000       1
H              -1.49635000     -0.38320300      2.80854000       1
H              -2.70361000     -0.86492800     -1.78456000       1
H              -2.89432000     -0.24638000      1.85188000       1
H              -1.38024000     -1.07590000     -2.97742000       1
N              -2.30394000     -0.89380900      2.41858000       7
I               1.52667000     -1.08206000      3.22242000      53
C              -2.42976000     -0.80563600     -2.84017000       6
I               2.00386000     -0.97285200     -3.22854000      53
H               2.28673000      2.72223000      2.08700000       1
H              -2.62083000      0.19695300     -3.22946000       1
H               0.33703300      2.50009000      3.52503000       1
H               1.90426000      3.49871000     -1.72580000       1
P              -2.66099000      3.43469000      0.00574087      15
H               2.23533000      1.72007000     -3.35552000       1
H               0.51760600      3.36507000     -2.85630000       1
I               4.37851000      0.82182100      0.13280800      53
I              -4.50395000      0.82182100      0.13280800      53
C               1.57323000      3.62863000     -2.75861000       6
C               1.94323000      3.56246000      2.69485000       6
H               1.29011000      4.21408000      2.10979000       1
C              -3.10608000     -1.53409000      3.49955000       6
N               1.16481000      3.02512000      3.84726000       7
N               2.37119000      2.71376000     -3.62900000       7
I               3.63999000     -3.59339000      0.04144260      53
N              -3.27106000     -1.77675000     -3.60131000       7
H              -2.45857000     -2.22018000      4.05044000       1
H              -3.12211000     -2.75140000     -3.27207000       1
H               1.20481000     -4.74426000      2.10979000       1
H               1.75481000      2.41203000      4.44840000       1
I              -2.63160000      3.39672000      3.22270000      53
H              -3.93519000     -2.07737000      3.04030000       1
H              -3.48243000     -0.75088800      4.16170000       1
H               1.65815000     -4.30228000     -3.08825000       1
I              -2.87524000      3.49021000     -3.23264000      53
H               3.38501000      2.93865000     -3.57935000       1
H              -4.28201000     -1.54691000     -3.51035000       1
H              -3.01682000     -1.74958000     -4.60752000       1
H               2.06224000      2.79394000     -4.61877000       1
H               1.74345000      4.65606000     -3.08825000       1
H               2.79476000      4.12533000      3.08396000       1
H               0.81621800      3.78997000      4.46693000       1
H               4.60046000     -1.54691000     -3.51035000       1
H               1.81896000     -5.45962000     -1.72580000       1
I              -0.73852600      6.00864000     -0.10320300      53
H               4.94727000     -2.07737000      3.04030000       1
P              -2.74629000     -5.52365000      0.00574087      15
C               1.48793000     -5.32970000     -2.75861000       6
H               5.98814000     -0.24638000      1.85188000       1
H               0.43230600     -5.59327000     -2.85630000       1
C               1.85793000     -5.39588000      2.69485000       6
H               2.70946000     -4.83300000      3.08396000       1
I              -5.24248000     -3.59339000      0.04144260      53
H               6.17885000     -0.86492800     -1.78456000       1
I              -1.12873000      0.62597700      6.36603000      53
I               0.04998990      1.62521000     -6.31617000      53
I               3.72529000      5.36495000      0.04144260      53
P               1.56920000     -1.21055000      6.40462000      15
P               1.70130000     -1.11651000     -6.45999000      15
H               5.40004000     -0.75088800      4.16170000       1
H               0.73091800     -5.16837000      4.46693000       1
N               5.61140000     -1.77675000     -3.60131000       7
C               5.77638000     -1.53409000      3.49955000       6
H               2.20143000     -6.23611000      2.08700000       1
I              -2.71690000     -5.56162000      3.22270000      53
I              -2.96054000     -5.46813000     -3.23264000      53
H               6.26163000      0.19695300     -3.22946000       1
N               6.57852000     -0.89380900      2.41858000       7
I              -1.01872000     -2.80214000     -6.42503000      53
C               6.45270000     -0.80563600     -2.84017000       6
P               6.22148000      3.43469000      0.00574087      15
N               1.07951000     -5.93322000      3.84726000       7
P              -7.09004000     -1.04687000      0.01321100      15
H               5.76035000     -2.75140000     -3.27207000       1
H              -5.49746000      2.93865000     -3.57935000       1
H               6.95278000     -1.60832000      1.75681000       1
H               0.25173300     -6.45825000      3.52503000       1
I               3.23815000      1.59237000      6.43514000      53
H              -6.59573000      2.72223000      2.08700000       1
I              -5.15718000      5.36495000      0.04144260      53
I              -0.20478900     -7.44665000     -0.03916500      53
I              -0.21620200     -3.86842000      6.42644000      53
N               2.28589000     -6.24458000     -3.62900000       7
H              -6.64713000      1.72007000     -3.35552000       1
H              -3.03681000      6.20694000     -3.27207000       1
I              -6.87860000     -0.97285200     -3.22854000      53
H               5.86564000     -1.74958000     -4.60752000       1
I               6.00722000      3.49021000     -3.23264000      53
P              -2.60237000      3.35327000     -6.45555000      15
H               3.29971000     -6.01969000     -3.57935000       1
P              -2.92429000      3.27800000      6.40018000      15
H              -1.84438000      7.35002000      1.75681000       1
I               6.25086000      3.39672000      3.22270000      53
I              -4.38777000      0.69540500     -6.43374000      53
I               4.49469000      0.69540500     -6.43374000      53
H               7.38611000     -0.38320300      2.80854000       1
H               6.42389000     -2.22018000      4.05044000       1
N              -6.51128000      2.71376000     -3.62900000       7
H               1.97694000     -6.16439000     -4.61877000       1
H              -6.08770000      4.12533000      3.08396000       1
H              -6.97820000      3.49871000     -1.72580000       1
H               1.66951000     -6.54631000      4.44840000       1
I              -7.35579000     -1.08206000      3.22242000      53
P               1.87772000      7.91147000      0.01321100      15
H               7.50222000     -1.07590000     -2.97742000       1
I              -0.13090100      5.08992000      6.42644000      53
H              -2.37327000      6.73816000      4.05044000       1
C              -6.93924000      3.56246000      2.69485000       6
P               6.13618000     -5.52365000      0.00574087      15
H               2.15003000     -7.23827000     -3.35552000       1
I               3.49686000     -3.76853000     -6.49414000      53
I               4.22156000     -2.93861000      6.54401000      53
H              -6.17300000     -4.83300000      3.08396000       1
H              -3.84989000      6.88096000      3.04030000       1
H              -1.29494000      7.88244000     -2.97742000       1
I              -4.66090000     -2.93861000      6.54401000      53
I               8.05864000     -2.94969000     -0.10320300      53
C              -7.30923000      3.62863000     -2.75861000       6
N              -3.18576000      7.18159000     -3.60131000       7
I               1.61197000      7.87628000      3.22242000      53
I               5.92192000     -5.46813000     -3.23264000      53
H              -2.61831000      8.09341000     -1.78456000       1
H              -6.82022000      2.79394000     -4.61877000       1
I              -5.64431000      1.59237000      6.43514000      53
N              -2.21864000      8.06453000      2.41858000       7
H              -7.12765000      2.41203000      4.44840000       1
C              -3.02078000      7.42425000      3.49955000       6
H               1.24005000      2.64493000      8.25266000       1
H              -2.64866000     -1.76988000      8.24140000       1
I               2.08916000      7.98549000     -3.22854000      53
I               8.76297000      1.51169000     -0.03916500      53
I               6.16556000     -5.56162000      3.22270000      53
H              -7.59235000      4.21408000      2.10979000       1
C              -2.34446000      8.15270000     -2.84017000       6
I              -0.93341800      6.15619000     -6.42503000      53
H              -5.58276000     -6.01969000     -3.57935000       1
H              -7.22431000     -4.30228000     -3.08825000       1
P              -2.68767000     -5.60507000     -6.45555000      15
H              -2.50206000     -1.98248000     -8.41178000       1
H              -2.93152000      7.20876000     -4.60752000       1
H               5.03257000      6.88096000      3.04030000       1
I               3.58216000      5.18980000     -6.49414000      53
H              -7.13901000      4.65606000     -3.08825000       1
P              -3.00959000     -5.68033000      6.40018000      15
H              -3.44065000     -0.60454100     -8.39324000       1
H              -7.06350000     -5.45962000     -1.72580000       1
I              -9.00195000      1.51169000     -0.03916500      53
H               5.84565000      6.20694000     -3.27207000       1
H              -1.41105000      8.57513000      2.80854000       1
N              -7.71765000      3.02512000      3.84726000       7
I               4.29321000     -8.13652000      0.13280800      53
H              -4.19671000      7.41143000     -3.51035000       1
I              -5.38560000     -3.76853000     -6.49414000      53
C              -7.02454000     -5.39588000      2.69485000       6
H              -7.67765000     -4.74426000      2.10979000       1
P               5.95817000      3.27800000      6.40018000      15
H              -2.80902000      8.71196000      1.85188000       1
I              -4.58925000     -8.13652000      0.13280800      53
H              -6.68103000     -6.23611000      2.08700000       1
H               2.25233000      2.34365000     -8.80973000       1
H               4.68576000      7.41143000     -3.51035000       1
H              -8.36486000      3.36507000     -2.85630000       1
H              -1.32589000     -1.62518000      9.28082000       1
C              -7.39453000     -5.32970000     -2.75861000       6
H              -8.54543000      2.50009000      3.52503000       1
H               1.22847000      3.81294000     -8.69848000       1
P               6.28009000      3.35327000     -6.45555000      15
N              -3.09206000     -1.36939000     -9.01291000       7
N               0.98580700      2.61776000      9.25886000       7
I              -0.03531040     -7.33313000     -6.31617000      53
N              -2.33971000     -1.85007000      9.23117000       7
H              -2.70613000     -8.76138000     -3.22946000       1
P              -7.18116000     -1.11651000     -6.45999000      15
I               1.29633000     -1.07362000      9.62754000      53
H              -0.02513870      2.84760000      9.34982000       1
N              -6.59658000     -6.24458000     -3.62900000       7
H               1.13476000      1.64311000      9.58810000       1
P              -7.31326000     -1.21055000      6.40462000      15
H              -3.39713000      8.20745000      4.16170000       1
N               5.69670000      7.18159000     -3.60131000       7
H              -2.97962000     -9.20472000      1.85188000       1
I              -5.30030000      5.18980000     -6.49414000      53
I               4.30686000      6.01972000      6.54401000      53
H              -1.58165000     -9.34154000      2.80854000       1
H              -1.46211000     -0.26917600     -9.77621000       1
I               1.99399000     -0.99779400     -9.63747000      53
C               1.60481000      3.02974000     -9.36063000       6
H              -8.06625000      3.78997000      4.46693000       1
I              -4.57560000      6.01972000      6.54401000      53
H               5.44181000     -0.60454100     -8.39324000       1
H              -2.53553000      9.15529000     -3.22946000       1
I               7.75373000      0.62597700      6.36603000      53
C               5.86168000      7.42425000      3.49955000       6
I               8.14394000      6.00864000     -0.10320300      53
I              -9.70629000     -2.94969000     -0.10320300      53
P               1.70712000    -10.00520000      0.01321100      15
H               0.77570300      2.48645000     -9.81987000       1
