200
cutoff_factor=1.20000000 nneightol=1.20000000 Lattice="29.14480000       0.00000000       0.00000000       0.00000000      29.06852000       0.00000000       0.00000000       0.00000000      28.34470000" Properties=species:S:1:pos:R:3:Z:I:1
H               0.69144600      1.30446000     -0.28718600       1
C               0.37767000      1.87391000     -1.16442000       6
H              -0.68109000      2.13275000     -1.09101000       1
H               0.57130200      1.30853000     -2.07844000       1
I              -1.98971000     -1.65398000     -0.21035600      53
I               2.38019000     -1.11714000      0.37332000      53
H               0.24078700     -1.17110000      2.37850000       1
I              -1.21880000      1.98588000      2.30325000      53
P               0.57408300     -3.16060000     -1.31187000      15
N               1.17023000      3.13799000     -1.21425000       7
N              -0.02947910     -1.78307000      3.17349000       7
H               1.01557000      3.70627000     -0.35986000       1
H              -1.05164000     -1.67220000      3.34009000       1
H               2.18695000      2.93470000     -1.30956000       1
H               0.16586600     -2.76023000      2.88855000       1
P              -3.87473000      0.42457000      1.30145000      15
I               0.65306900     -1.24705000     -3.88138000      53
H               0.86320700      3.71787000     -2.02047000       1
H              -3.70463000     -0.85188600     -2.49544000       1
C               0.74401100     -1.41303000      4.39435000       6
H               0.50196300     -0.38081300      4.65727000       1
H               1.80892000     -1.51246000      4.17188000       1
H              -2.61651000     -1.30260000     -3.85121000       1
I              -4.09796000      2.34241000     -1.30840000      53
I               3.25542000      2.56731000      2.93168000      53
C              -3.57431000     -0.85350300     -3.57923000       6
P               5.01140000      0.42457000      1.30145000      15
H              -3.08412000     -4.21421000      0.70008900       1
H               3.27937000     -1.28520000     -3.94617000       1
I               0.64913300     -5.08910000      1.31257000      53
H              -3.64796000      0.16277300     -3.97064000       1
I               4.78817000      2.34241000     -1.30840000      53
I              -3.63566000     -1.39634000      3.96374000      53
H               0.45898600     -2.09105000      5.20161000       1
P               0.56473500      4.04458000      3.96674000      15
H              -2.66830000      5.03996000      0.75019100       1
H               5.18150000     -0.85188600     -2.49544000       1
I               0.71777700      5.92438000      1.31257000      53
I               3.17884000     -4.62968000     -2.49779000      53
N               4.21713000     -1.66715000     -4.18012000       7
I              -1.21312000     -5.43439000     -2.70848000      53
I              -2.02961000      2.10056000     -5.54275000      53
H               4.21982000     -2.64427000     -3.81970000       1
I              -1.14447000      5.57909000     -2.70848000      53
I               2.46132000      2.77578000     -5.11778000      53
C              -3.51929000     -5.21154000      0.77944200       6
H               3.90291000     -4.61452000      2.18203000       1
C               5.31182000     -0.85350300     -3.57923000       6
N              -4.66900000     -1.66715000     -4.18012000       7
P               0.54526800      0.55028000     -6.51783000      15
H               5.23818000      0.16277300     -3.97064000       1
H              -4.66631000     -2.64427000     -3.81970000       1
I              -6.50594000     -1.11714000      0.37332000      53
H              -2.73694000     -5.97352000      0.75019100       1
I               5.25047000     -1.39634000      3.96374000      53
H               4.29722000      4.75587000      2.21227000       1
C              -3.45065000      5.80194000      0.77944200       6
I              -5.63071000      2.56731000      2.93168000      53
H              -4.24366000     -5.37880000     -0.01960280       1
P              -3.77455000      4.21601000     -3.92773000      15
H              -3.56976000     -5.20314000      2.88968000       1
H               4.26810000     -1.68397000     -5.21873000       1
H              -4.58891000      4.75587000      2.21227000       1
H              -5.60677000     -1.28520000     -3.94617000       1
I               0.67253600      2.24726000      6.60318000      53
H              -4.17502000      5.63469000     -0.01960280       1
H               0.48249600     -3.87512000     -5.82729000       1
H               4.28756000      1.81033000      5.26583000       1
I               6.89642000     -1.65398000     -0.21035600      53
H               4.64247000     -5.37880000     -0.01960280       1
N              -4.23027000     -5.31329000      2.08914000       7
H              -4.98322000     -4.61452000      2.18203000       1
H              -4.61803000     -1.68397000     -5.21873000       1
H               5.80201000     -4.21421000      0.70008900       1
H              -4.59857000      1.81033000      5.26583000       1
H               4.71111000      5.63469000     -0.01960280       1
N              -4.16162000      5.70019000      2.08914000       7
N               4.65587000     -5.31329000      2.08914000       7
H              -3.50112000      5.81034000      2.88968000       1
H               0.94692400     -7.30722000     -0.35986000       1
H              -6.69918000      2.93470000     -1.30956000       1
H              -2.59705000      2.19171000      6.63336000       1
H              -3.01547000      6.79927000      0.70008900       1
H               6.26962000     -1.30260000     -3.85121000       1
C               5.36684000     -5.21154000      0.77944200       6
I               2.41214000     -4.74340000      5.36679000      53
I               3.24748000      6.38380000     -2.49779000      53
H               0.50816300      5.42813000     -5.28296000       1
H               0.79456400     -7.29562000     -2.02047000       1
I              -2.07879000     -5.41862000      4.94182000      53
H               3.29883000      2.20910000      6.53840000       1
N               4.72451000      5.70019000      2.08914000       7
H               0.43951900     -5.58536000     -5.28296000       1
P               5.11158000      4.21601000     -3.92773000      15
I              -2.01015000      5.59486000      4.94182000      53
I              -5.70729000     -4.62968000     -2.49779000      53
N               4.23660000      1.82716000      6.30444000       7
H               3.97156000      6.39897000      2.18203000       1
C               0.72454500     -4.90734000     -6.09022000       6
H               4.22858000     -6.25762000      2.21227000       1
H               4.23929000      0.85003000      6.66486000       1
H               5.31637000     -5.20314000      2.88968000       1
P               0.64272700      7.85289000     -1.31187000      15
C               5.43549000      5.80194000      0.77944200       6
P               0.49609100     -6.96890000      3.96674000      15
H               6.21784000      5.03996000      0.75019100       1
N              -4.64953000      1.82716000      6.30444000       7
N               1.10158000     -7.87550000     -1.21425000       7
I              -1.19365000     -1.94009000      7.77609000      53
H              -4.65755000     -6.25762000      2.21227000       1
H              -4.64684000      0.85003000      6.66486000       1
C              -3.55485000      2.64080000      6.90534000       6
I               7.66733000      1.98588000      2.30325000      53
H               1.78945000     -5.00677000     -6.31269000       1
I               3.23595000     -0.92699000     -7.55288000      53
P              -3.82372000     -3.30317000      6.55684000      15
H              -8.19469000      1.30446000     -0.28718600       1
H              -3.62849000      3.65708000      6.51393000       1
H              -7.07721000     -1.51246000      4.17188000       1
H              -4.91457000      6.39897000      2.18203000       1
I              -1.23827000     -1.50842000     -8.18132000      53
N              -7.71590000      3.13799000     -1.21425000       7
H               5.38501000      5.81034000      2.88968000       1
H               2.11830000     -8.07878000     -1.30956000       1
H               8.20504000      2.13275000     -1.09101000       1
H               6.14919000     -5.97352000      0.75019100       1
I               2.48078000      6.27009000      5.36679000      53
C               0.79318800      6.10615000     -6.09022000       6
H              -8.31483000      1.30853000     -2.07844000       1
I              -6.42482000      2.77578000     -5.11778000      53
I               3.19830000     -1.13538000      7.98678000      53
H               7.83450000     -1.67220000      3.34009000       1
H              -3.52059000      2.31604000     -7.59488000       1
H              -7.87056000      3.70627000     -0.35986000       1
P              -3.84319000     -6.79748000     -3.92773000      15
H               0.23451000      8.25325000      2.88855000       1
C              -8.50846000      1.87391000     -1.16442000       6
I              -5.63865000      6.38380000     -2.49779000      53
H              -5.58730000      2.20910000      6.53840000       1
H              -1.07110000     -5.16650000     -7.14448000       1
H               1.85810000      6.00672000     -6.31269000       1
P               5.06241000     -3.30317000      6.55684000      15
I              -3.65513000     -4.89065000     -6.52083000      53
H               0.21504300      4.75895000     -7.59602000       1
H              -0.74973400     -8.88074000     -1.09101000       1
P              -8.31205000     -3.16060000     -1.31187000      15
H               5.87066000      6.79927000      0.70008900       1
N              -0.04894570     -5.27738000     -7.31107000       7
H              -8.64535000     -1.17110000      2.37850000       1
I               6.85652000      2.10056000     -5.54275000      53
H              -8.02292000      3.71787000     -2.02047000       1
C               5.33129000      2.64080000      6.90534000       6
H               5.25764000      3.65708000      6.51393000       1
H              -3.68516000      2.64242000      7.98912000       1
I              -8.23306000     -1.24705000     -3.88138000      53
P               0.59355000      0.33370600      9.17270000      15
C               0.30902700     -9.13957000     -1.16442000       6
H               0.55114000      7.13837000     -5.82729000       1
H              -1.00246000      5.84698000     -7.14448000       1
N               0.01969800      5.73611000     -7.31107000       7
H               0.81403000     -3.80131000      8.46409000       1
P               5.04294000     -6.79748000     -3.92773000      15
H               0.22132000     -4.66540000     -8.10606000       1
C              -8.14212000     -1.41303000      4.39435000       6
H               4.27776000      1.26156000     -8.27230000       1
H               6.28908000      2.19171000      6.63336000       1
I              -1.28745000     -9.02760000      2.30325000      53
I              -5.65018000     -0.92699000     -7.55288000      53
I               3.18678000     -8.44617000      2.93168000      53
H               9.12692000     -1.17110000      2.37850000       1
I               0.69831000      2.43008000     -9.17200000      53
C               9.26380000      1.87391000     -1.16442000       6
H              -4.60838000      1.26156000     -8.27230000       1
I              -1.92107000      9.35950000     -0.21035600      53
N               8.85665000     -1.78307000      3.17349000       7
H               5.36555000      2.31604000     -7.59488000       1
H              -8.72027000     -2.76023000      2.88855000       1
H              -8.38417000     -0.38081300      4.65727000       1
N              -8.91561000     -1.78307000      3.17349000       7
N              -4.18109000      2.20589000     -8.39543000       7
I              -3.58649000      6.12284000     -6.52083000      53
H               3.95209000      2.90466000     -8.30254000       1
I              -6.47399000     -4.74340000      5.36679000      53
H               9.57758000      1.30446000     -0.28718600       1
I               5.23100000     -4.89065000     -6.52083000      53
H               0.59076800      4.80283000      8.40612000       1
I              -4.16660000     -8.67107000     -1.30840000      53
H               0.62280200     -9.70902000     -0.28718600       1
N               0.03916470      9.23041000      3.17349000       7
I              -8.23700000     -5.08910000      1.31257000      53
H               9.45743000      1.30853000     -2.07844000       1
I               7.67301000     -5.43439000     -2.70848000      53
H               0.14639900     -6.25454000     -7.59602000       1
H              -9.56722000      2.13275000     -1.09101000       1
I              -5.68783000     -1.13538000      7.98678000      53
N               4.70504000      2.20589000     -8.39543000       7
H               5.20097000      2.64242000      7.98912000       1
H               9.05200000     -2.76023000      2.88855000       1
I               7.74166000      5.57909000     -2.70848000      53
H               0.50265800     -9.70496000     -2.07844000       1
