200
cutoff_factor=1.20000000 nneightol=1.20000000 Lattice="28.48640000       0.00000000       0.00000000       0.00000000      29.12739000       0.00000000       0.00000000       0.00000000      28.64100000" Properties=species:S:1:pos:R:3:Z:I:1
H               0.25488700      0.67067600      1.85081000       1
I               1.78544000     -1.13821000      0.59822700      53
H              -0.07233950      2.67461000      0.53681900       1
N              -0.13369100      1.52524000      2.30357000       7
H               1.02861000     -1.49744000     -2.27493000       1
H              -1.16528000      1.45976000      2.33081000       1
I              -1.87635000      1.69154000     -1.90173000      53
C               0.30868500      2.73825000      1.55834000       6
H              -0.98192700     -0.42151800     -3.10576000       1
I              -2.62665000     -1.84774000      0.89390400      53
H               1.40073000      2.76458000      1.55755000       1
H               0.23556200      1.57123000      3.27611000       1
C               0.40636800     -2.00981000     -3.01096000       6
H              -0.28566900     -2.69604000     -2.51812000       1
N              -0.38741000     -0.98650600     -3.74802000       7
P              -0.09288260     -3.43316000      1.94367000      15
H              -0.09294340      3.61972000      2.06245000       1
I               2.65799000      2.51126000     -2.16669000      53
H               0.21504700     -0.30791800     -4.24796000       1
P               4.41826000      0.20706900     -0.63446900      15
P              -4.47892000      0.20706900     -0.63446900      15
H               1.03052000     -2.54335000     -3.72987000       1
H              -0.98766900     -1.41731000     -4.48465000       1
I               0.04182380     -1.68156000      4.63778000      53
H               3.19195000     -0.61535500      3.95154000       1
I              -4.23035000      2.22180000      1.83896000      53
P               0.00542982      3.93985000     -3.29787000      15
I              -0.22553900     -5.27077000     -0.70299600      53
I               4.66683000      2.22180000      1.83896000      53
H              -4.27213000     -1.37004000      3.18439000       1
I               4.25706000     -1.61154000     -3.25915000      53
H               3.34464000     -2.40162000      3.90192000       1
C               3.88667000     -1.45786000      3.98180000       6
H               4.62505000     -1.37004000      3.18439000       1
I              -0.23108000      5.77153000     -0.70299600      53
I              -4.64012000     -1.61154000     -3.25915000      53
H              -3.97219000      4.36062000      0.25964100       1
H              -2.82487000      5.23843000     -0.62169300       1
H               3.18512000     -5.11465000     -0.39426700       1
I               1.73335000      2.29622000      5.41577000      53
I               0.05430500      1.96794000     -5.81338000      53
H              -4.37863000     -4.30449000      0.49010100       1
H              -4.10136000      4.45970000     -1.40451000       1
H               4.42516000     -4.18239000     -1.29860000       1
H              -4.47202000     -4.18239000     -1.29860000       1
H               4.51855000     -4.30449000      0.49010100       1
H               3.94110000      2.16915000     -4.36496000       1
N              -3.83373000      4.99191000     -0.55734700       7
I               2.48531000     -5.04989000      2.91603000      53
H              -3.61729000      1.43694000     -5.07435000       1
C               4.23596000     -4.81856000     -0.43106300       6
H              -2.81933000     -5.80387000     -0.62169300       1
C              -5.01051000     -1.45786000      3.98180000       6
H               4.92499000      4.36062000      0.25964100       1
I               6.27053000     -1.84774000      0.89390400      53
H              -3.77803000     -0.53235100      5.40909000       1
H               4.79583000      4.45970000     -1.40451000       1
C              -4.66122000     -4.81856000     -0.43106300       6
H               3.17958000      5.92764000     -0.39426700       1
I              -2.72524000      1.66581000      6.04427000      53
I              -1.93703000     -5.48461000      3.61023000      53
H              -3.62977000     -2.21256000      5.37681000       1
I              -1.94257000      5.55768000      3.61023000      53
H              -4.95608000      2.16915000     -4.36496000       1
N              -4.29522000     -1.43310000      5.29114000       7
H              -5.70523000     -0.61535500      3.95154000       1
H              -3.76555000      3.11715000     -5.04207000       1
N              -4.28274000      2.21640000     -5.16003000       7
I              -6.23919000      2.51126000     -2.16669000      53
I               2.47977000      5.99240000      2.91603000      53
N               5.06345000      4.99191000     -0.55734700       7
N               4.60196000     -1.43310000      5.29114000       7
P              -0.00705133      0.29035300      7.15329000      15
N              -3.82819000     -6.05038000     -0.55734700       7
H              -5.55254000     -2.40162000      3.90192000       1
I              -7.11174000     -1.13821000      0.59822700      53
N               4.61444000      2.21640000     -5.16003000       7
I              -1.92455000     -1.83511000     -6.84094000      53
H               0.20256600     -3.95742000      6.20320000       1
I               1.75137000     -5.09657000     -5.03540000      53
H               3.92862000     -1.48035000      6.08621000       1
I              -2.71276000      5.31531000     -4.40689000      53
P               4.35687000      3.94294000      4.55571000      15
H               5.27990000      1.43694000     -5.07435000       1
H               3.35712000      1.24788000     -6.54925000       1
H               5.11915000     -0.53235100      5.40909000       1
I               7.02083000      1.69154000     -1.90173000      53
C               4.23042000      6.22373000     -0.43106300       6
P              -4.54031000      3.94294000      4.55571000      15
H              -5.71206000     -5.11465000     -0.39426700       1
H              -0.08740260     -7.42257000      2.06245000       1
I              -2.70722000     -5.72698000     -4.40689000      53
H              -3.96665000     -6.68167000      0.25964100       1
C              -4.66676000      6.22373000     -0.43106300       6
P               0.01097060     -7.10244000     -3.29787000      15
H               5.13163000      3.11715000     -5.04207000       1
H               5.26741000     -2.21256000      5.37681000       1
P              -0.09842350      7.60913000      1.94367000      15
H               3.20443000      3.03415000     -6.49962000       1
C               3.89915000      2.19164000     -6.46937000       6
H              -4.09581000     -6.58260000     -1.40451000       1
H              -1.00015000     -5.06682000      5.96652000       1
N               5.06899000     -6.05038000     -0.55734700       7
I               1.74583000      5.94572000     -5.03540000      53
H              -4.96856000     -1.48035000      6.08621000       1
H               6.07231000      5.23843000     -0.62169300       1
H              -4.38417000      6.73780000      0.49010100       1
I               2.49779000     -1.40039000     -7.53514000      53
P               4.37489000     -3.44985000     -5.89546000      15
H               4.51301000      6.73780000      0.49010100       1
H              -7.49645000      2.76458000      1.55755000       1
N              -0.39989100     -4.63601000      6.70314000       7
P              -4.52229000     -3.44985000     -5.89546000      15
H               7.73190000      1.45976000      2.33081000       1
H              -5.71760000      5.92764000     -0.39426700       1
H               4.41962000      6.85991000     -1.29860000       1
H               4.80137000     -6.58260000     -1.40451000       1
H              -4.47756000      6.85991000     -1.29860000       1
H               4.93053000     -6.68167000      0.25964100       1
H              -7.86857000     -1.49744000     -2.27493000       1
H               1.01249000      4.84944000      6.72130000       1
H              -0.06679870     -8.36768000      0.53681900       1
H               6.07785000     -5.80387000     -0.62169300       1
C               0.31422600     -8.30404000      1.55834000       6
H              -0.99440800     -4.07102000      7.34541000       1
C              -4.99803000      2.19164000     -6.46937000       6
H              -1.00569000      5.97548000      5.96652000       1
P              -0.08040150      0.21634100     -8.50750000      15
H               7.91525000     -0.42151800     -3.10576000       1
H               1.40628000     -8.27771000      1.55755000       1
I              -6.41187000     -5.04989000      2.91603000      53
H              -5.54006000      1.24788000     -6.54925000       1
H              -0.29121000      8.34625000     -2.51812000       1
H              -4.25965000      2.27946000     -7.26677000       1
I               2.64551000     -1.13824000      8.28447000      53
I               6.17194000      1.66581000      6.04427000      53
H              -8.64229000      0.67067600      1.85081000       1
H               0.24804300      5.22073000     -7.17505000       1
H               4.63754000      2.27946000     -7.26677000       1
I              -1.88883000     -1.95796000      8.54943000      53
H              -7.86667000     -2.54335000     -3.72987000       1
C              -8.58850000      2.73825000      1.55834000       6
H              -5.69275000      3.03415000     -6.49962000       1
N               8.76349000      1.52524000      2.30357000       7
C               0.38834600      5.38298000      7.44020000       6
H               1.01803000     -6.19285000      6.72130000       1
I               2.66353000     -8.53103000     -2.16669000      53
H              -0.07492140     -3.77307000     -8.38871000       1
H               7.90951000     -1.41731000     -4.48465000       1
H              -0.30369100      4.69675000      7.93305000       1
C              -8.49081000     -2.00981000     -3.01096000       6
H               8.82484000      2.67461000      0.53681900       1
H               0.25358400     -5.82156000     -7.17505000       1
I              -6.41741000      5.99240000      2.91603000      53
I               6.18442000      5.31531000     -4.40689000      53
I              -7.16383000      2.29622000      5.41577000      53
N              -0.40543200      6.40629000      6.70314000       7
H               1.02498000      8.49894000     -3.72987000       1
N               8.50977000     -0.98650600     -3.74802000       7
C               0.39388700     -5.65931000      7.44020000       6
H               9.15207000      0.67067600      1.85081000       1
H               8.61151000     -2.69604000     -2.51812000       1
H              -8.96952000      2.67461000      0.53681900       1
H              -8.66162000      1.57123000      3.27611000       1
H               0.19702500      7.08487000      6.20320000       1
N              -9.03087000      1.52524000      2.30357000       7
P               4.36241000     -7.09935000      4.55571000      15
I               6.18996000     -5.72698000     -4.40689000      53
C               0.40082700      9.03248000     -3.01096000       6
I               6.96015000     -5.48461000      3.61023000      53
P              -4.53477000     -7.09935000      4.55571000      15
I              -2.63219000      9.19455000      0.89390400      53
I               6.95461000      5.55768000      3.61023000      53
H               0.26736900      4.32018000     -8.60036000       1
P               8.80430000     -3.43316000      1.94367000      15
N              -0.12121000      5.17474000     -8.14759000       7
H              -1.15280000      5.10926000     -8.12035000       1
H              -8.68213000     -0.30791800     -4.24796000       1
H               1.01613000     -5.14694000      8.17624000       1
I              -1.87081000     -9.35076000     -1.90173000      53
C               9.20587000      2.73825000      1.55834000       6
H               8.80424000      3.61972000      2.06245000       1
N              -0.12815000     -9.51705000      2.30357000       7
P              -8.99006000     -3.43316000      1.94367000      15
H               9.13274000      1.57123000      3.27611000       1
H               1.02307000      9.54486000     -2.27493000       1
I               4.24458000     -5.26104000      7.19201000      53
H              -9.18285000     -2.69604000     -2.51812000       1
H              -8.99012000      3.61972000      2.06245000       1
H              -1.15974000     -9.58253000      2.33081000       1
I               6.97263000     -1.83511000     -6.84094000      53
I              -4.22481000     -8.82049000      1.83896000      53
H              -4.11384000      0.81019400      9.04665000       1
I              -0.24356100      2.12202000      9.74817000      53
C               9.30355000     -2.00981000     -3.01096000       6
I              -6.39939000     -1.40039000     -7.53514000      53
H               0.24110300     -9.47106000      3.27611000       1
N              -0.11566900     -5.86755000     -8.14759000       7
C               0.32670700     -4.65454000     -8.89283000       6
H               3.33910000      8.64068000      3.90192000       1
