200
cutoff_factor=1.20000000 nneightol=1.20000000 Lattice="30.54070000       0.00000000       0.00000000       0.00000000      29.76887000       0.00000000       0.00000000       0.00000000      29.78895000" Properties=species:S:1:pos:R:3:Z:I:1
H              -0.17374800     -0.31373600      1.10506000       1
C              -0.54978300     -0.25347300      2.12868000       6
H              -1.23909000      0.58425100      2.22883000       1
H               0.27429800     -0.15849700      2.83781000       1
I               1.00442000      2.82469000      0.08363160      53
N              -1.29791000     -1.50545000      2.43243000       7
H              -2.14725000     -1.54420000      1.82595000       1
H              -0.70683600     -2.34272000      2.23883000       1
I              -1.49625000      0.39074900     -3.37415000      53
P               0.58651400      2.61864000     -3.06381000      15
I              -3.92485000     -1.10999000      0.08369100      53
H              -1.58275000     -1.52096000      3.43988000       1
H               3.68996000      1.13038000      2.22902000       1
I               0.52427400     -4.33961000      1.21731000      53
I               2.92420000     -1.36034000      3.23230000      53
H               2.78203000      3.25886000      1.82585000       1
H              -0.04995240     -2.02561000     -4.26826000       1
P               3.50114000     -3.21547000      0.84186200      15
I              -2.00494000      3.07488000      3.23219000      53
H              -0.38610000     -3.54777000     -3.37569000       1
I               3.43288000      1.32378000     -3.37421000      53
I               3.24575000     -3.18248000     -2.27947000      53
P              -1.42799000      4.93008000      0.84181500      15
C               4.37936000      1.96802000      2.12886000       6
H               4.75551000      2.02816000      1.10527000       1
C              -0.19717900     -3.10359000     -4.35558000       6
P              -4.34265000     -0.90403600     -3.06377000      15
N               3.63131000      3.22009000      2.43241000       7
H              -5.10282000      2.02816000      1.10527000       1
I              -1.68350000      4.89699000     -2.27948000      53
H              -4.65498000      1.87304000      2.83809000       1
H               3.34639000      3.23571000      3.43983000       1
H               1.84236000     -3.50736000     -4.26681000       1
I               5.93348000     -1.10999000      0.08369100      53
H              -1.01429000     -3.32508000     -5.04306000       1
C              -5.47897000      1.96802000      2.12886000       6
H               5.20336000      1.87304000      2.83809000       1
N               1.04265000     -3.69797000     -4.91129000       7
H               4.22248000      4.05730000      2.23879000       1
I              -1.92640000     -1.34295000      5.92328000      53
P               5.51569000     -0.90403600     -3.06377000      15
H              -1.84891000      2.51418000      5.59353000       1
H               3.07994000     -0.79962100      5.59363000       1
H               0.83278300     -0.77077300      6.41264000       1
H              -6.16837000      1.13038000      2.22902000       1
H               1.23298000     -3.29639000     -5.86158000       1
H              -2.12656000      1.07969000      6.41998000       1
P              -1.42801000     -6.69111000      0.84181500      15
H               0.95532800     -4.73087000     -5.03513000       1
H               2.80245000      0.63495500      6.41999000       1
N               2.88976000     -0.39793800      6.54391000       7
N              -2.03924000      2.11260000      6.54382000       7
P              -6.35720000     -3.21547000      0.84186200      15
I              -4.40486000     -5.56693000      1.21737000      53
I               1.15551000      4.46768000     -5.53183000      53
I              -3.77370000     -2.75298000     -5.53188000      53
H              -5.63586000      4.05730000      2.23879000       1
I              -1.68352000     -6.72420000     -2.27948000      53
I               3.00274000      3.05758000      5.92323000      53
C               1.65004000     -0.99221700      7.09996000       6
I              -6.42546000      1.32378000     -3.37421000      53
I               0.52429200      7.28159000      1.21731000      53
H              -3.08685000      5.22212000     -4.26684000       1
N              -6.22702000      3.22009000      2.43241000       7
H               4.87916000      3.74043000     -4.26774000       1
H              -4.97917000      3.74043000     -4.26774000       1
I              -4.40484000      6.05426000      1.21737000      53
H              -1.23953000      2.30321000      7.18830000       1
I              -6.61259000     -3.18248000     -2.27947000      53
H               1.79726000     -2.07020000      7.18737000       1
H               4.54326000      5.26270000     -3.37527000       1
I              -6.93413000     -1.36034000      3.23230000      53
I               5.45348000     -5.56693000      1.21737000      53
H              -7.07631000      3.25886000      1.82585000       1
H              -4.09618000      2.48548000      6.41205000       1
C               4.73195000      4.81841000     -4.35515000       6
H              -6.51194000      3.23571000      3.43983000       1
H               7.71108000     -1.54420000      1.82595000       1
H               3.68958000     -0.58851200      7.18827000       1
H               3.91469000      5.03986000     -5.04247000       1
H              -5.31508000      5.26270000     -3.37527000       1
H               1.46135000     -0.54793200      8.07984000       1
I               5.45349000      6.05426000      1.21737000      53
H              -3.97399000     -5.17561000     -5.03512000       1
C              -5.12639000      4.81841000     -4.35515000       6
C              -3.27907000      2.70697000      7.09953000       6
N              -3.88666000      5.41269000     -4.91120000       7
H              -3.08686000     -6.39908000     -4.26684000       1
H               4.54324000     -6.35850000     -3.37527000       1
H              -3.69649000      5.01101000     -5.86148000       1
H               0.95534600      6.89032000     -5.03513000       1
I               6.08463000     -2.75298000     -5.53188000      53
H              -3.13184000      3.78496000      7.18686000       1
I               1.07695000     -2.73568000     -8.22292000      53
H              -0.38608300      8.07343000     -3.37569000       1
N              -3.88668000     -6.20850000     -4.91120000       7
H              -6.77840000     -0.79962100      5.59363000       1
I               1.00440000     -8.79650000      0.08363160      53
H               8.61925000      0.58425100      2.22883000       1
H               4.22246000     -7.56389000      2.23879000       1
H              -5.31509000     -6.35850000     -3.37527000       1
H               5.76215000      2.48548000      6.41205000       1
H               2.78201000     -8.36233000      1.82585000       1
I               8.36209000      0.39074900     -3.37415000      53
N               8.56042000     -1.50545000      2.43243000       7
I               7.85340000      3.07488000      3.23219000      53
H              -3.46799000      2.26280000      8.07942000       1
H               8.27559000     -1.52096000      3.43988000       1
H              -3.43005000     -2.57486000     -8.01528000       1
H              -3.97398000      6.44558000     -5.03512000       1
I               1.15549000     -7.15351000     -5.53183000      53
P               3.50115000      8.40572000      0.84186200      15
H               3.91467000     -6.58134000     -5.04247000       1
H               1.49916000      4.28967000     -8.01523000       1
I               0.35097200     -4.48685000      8.08091000      53
H              -5.94364000      5.03986000     -5.04247000       1
I              -8.85391000      2.82469000      0.08363160      53
H               5.88434000     -5.17561000     -5.03512000       1
P              -2.49539000     -3.19199000      8.39131000      15
I               3.24576000      8.43871000     -2.27947000      53
H               1.84238000      8.11383000     -4.26681000       1
I              -2.00496000     -8.54631000      3.23219000      53
C               4.73193000     -6.80278000     -4.35515000       6
N               1.04267000      7.92322000     -4.91129000       7
N               5.97167000      5.41269000     -4.91120000       7
N               3.63130000     -8.40110000      2.43241000       7
H              -6.16875000     -0.58851200      7.18827000       1
P               0.58649600     -9.00255000     -3.06381000      15
I               0.16385600      2.62808000      9.17565000      53
C               9.30855000     -0.25347300      2.12868000       6
H               6.77149000      5.22212000     -4.26684000       1
H              -7.05588000      0.63495500      6.41999000       1
I              -6.85559000      3.05758000      5.92323000      53
C              -5.12640000     -6.80278000     -4.35515000       6
N              -6.96857000     -0.39793800      6.54391000       7
C              -0.19716100      8.51760000     -4.35558000       6
H              -0.70681900      9.27847000      2.23883000       1
H              -3.69651000     -6.61018000     -5.86148000       1
H              -1.57309000     -3.93753000     -8.61702000       1
H               3.34637000     -8.38549000      3.43983000       1
H              -5.63588000     -7.56389000      2.23879000       1
H               9.15150000     -2.34272000      2.23883000       1
H              -2.55397000     -1.75327000     -9.21632000       1
H              -8.01597000     -3.50736000     -4.26681000       1
H               9.68459000     -0.31373600      1.10506000       1
H              -1.01427000      8.29611000     -5.04306000       1
I               8.17483000      4.89699000     -2.27948000      53
P               8.43034000      4.93008000      0.84181500      15
H               6.16184000      5.01101000     -5.86148000       1
N              -3.14513000     -2.59047000     -9.02270000       7
N               5.97165000     -6.20850000     -4.91120000       7
I               7.93194000     -1.34295000      5.92328000      53
H              -9.58404000     -0.15849700      2.83781000       1
P               2.43380000      4.90653000      8.39134000      15
C               6.57927000      2.70697000      7.09953000       6
H               5.88436000      6.44558000     -5.03512000       1
H               8.00942000      2.51418000      5.59353000       1
H             -10.03210000     -0.31373600      1.10506000       1
H               7.73177000      1.07969000      6.41998000       1
P              -9.27182000      2.61864000     -3.06381000      15
I              -3.85223000      4.45029000     -8.22281000      53
H               2.37507000      3.46791000     -9.21628000       1
N               1.78399000      4.30518000     -9.02268000       7
H              -5.94366000     -6.58134000     -5.04247000       1
H               4.87915000     -7.88076000     -4.26774000       1
H               6.77147000     -6.39908000     -4.26684000       1
H              -4.97919000     -7.88076000     -4.26774000       1
H               1.23300000      8.32480000     -5.86158000       1
I              -1.32295000      0.24370000    -10.23770000      53
I              -9.33406000     -4.33961000      1.21731000      53
C              -2.39708000     -3.84254000     -9.32625000       6
I              -4.76541000     -0.91364000      9.17563000      53
N               7.81910000      2.11260000      6.54382000       7
H              -2.14724000     10.07700000      1.82595000       1
N              -1.29790000     10.11570000      2.43243000       7
H              -0.04993480      9.59558000     -4.26826000       1
H              10.13260000     -0.15849700      2.83781000       1
I               5.09293000     -0.91364000      9.17563000      53
H               6.72649000      3.78496000      7.18686000       1
H               6.39034000      2.26280000      8.07942000       1
P              -6.35718000      8.40572000      0.84186200      15
H               0.93465300      4.26643000     -9.62917000       1
H               6.42828000     -2.57486000     -8.01528000       1
C             -10.40810000     -0.25347300      2.12868000       6
H               9.47223000     -3.54777000     -3.37569000       1
H               8.84404000     -3.32508000     -5.04306000       1
H              -3.99442000     -2.55171000     -9.62927000       1
N              -6.22704000     -8.40110000      2.43241000       7
N              -8.81568000     -3.69797000     -4.91129000       7
I              -4.57815000     -5.41988000      8.08096000      53
H               1.84280000     -5.22631000     -9.22628000       1
H               4.75550000     -9.59303000      1.10527000       1
H               6.16183000     -6.61018000     -5.86148000       1
P               1.65390000     -0.88048200    -10.61330000      15
I               0.35098900      7.13434000      8.08091000      53
H              -1.58273000     10.10020000      3.43988000       1
P               8.43032000     -6.69111000      0.84181500      15
H              -3.08648000     -4.68019000     -9.22610000       1
C               4.37935000     -9.65317000      2.12886000       6
I               8.17482000     -6.72420000     -2.27948000      53
