200
cutoff_factor=1.20000000 nneightol=1.20000000 Lattice="28.59514000       0.00000000       0.00000000       0.00000000      28.85506000       0.00000000       0.00000000       0.00000000      28.63855000" Properties=species:S:1:pos:R:3:Z:I:1
I               1.78814000     -0.09163470      0.19477500      53
P              -0.28316200      1.40848000      2.09656000      15
H              -1.99868000      0.34276600     -1.54037000       1
H              -2.48003000     -1.04397000     -0.76100400       1
H              -0.71050200     -1.55654000     -2.36732000       1
N              -2.45271000     -0.57870400     -1.69288000       7
I              -2.33876000     -1.08045000      1.85444000      53
I              -1.76936000      2.73572000     -0.39832900      53
H               1.28744000     -2.59208000      1.85149000       1
C              -1.73133000     -1.39033000     -2.71745000       6
H               1.42353000      3.09704000     -2.04031000       1
H              -3.43482000     -0.36726100     -1.97072000       1
H               3.66910000      0.63274900      1.73566000       1
H              -1.72542000     -0.83206600     -3.65583000       1
P               3.33417000     -1.21013000     -2.35431000      15
H              -2.25472000     -2.34127000     -2.83963000       1
C               1.32588000     -3.36444000      2.62213000       6
I               1.54476000      0.43197800     -4.38298000      53
H               0.50519000     -3.23657000      3.33187000       1
H              -0.07254250      3.98093000     -2.49600000       1
C               0.95207900      3.74101000     -2.78615000       6
I               1.08995000      0.00420504      4.64111000      53
I               1.38448000     -3.75057000     -2.64620000      53
I               1.69857000      3.84986000      2.41095000      53
H               0.25881300     -4.76710000      1.47217000       1
H               0.96571200      3.26639000     -3.76911000       1
N               4.39875000      0.88041400      2.43995000       7
H               2.28597000     -3.34058000      3.14139000       1
N               1.17848000     -4.69614000      1.96398000       7
H              -5.06297000      0.79417100      1.06143000       1
H               3.97463000      1.52237000      3.12919000       1
H               1.92197000     -4.88029000      1.27422000       1
H               4.66795000     -0.00108272      2.92993000       1
I              -2.42194000      2.84404000      4.08991000      53
I              -1.85175000     -5.25868000      0.17160100      53
H              -4.74445000      1.76180000      2.53862000       1
H               5.23370000      2.40878000      1.25616000       1
H              -1.73867000      5.54939000      1.27422000       1
C              -5.48074000      1.50963000      1.77336000       6
H              -1.08691000     -0.27657800      5.86291000       1
P              -4.04749000     -3.86909000      2.12915000      15
H              -2.48525000      0.52797900      5.45713000       1
N               1.72046000      5.01174000     -2.87317000       7
C               5.57361000      1.50963000      1.77336000       6
I               5.27829000     -2.94412000     -0.41034600      53
I               5.52496000      1.15828000     -2.21408000      53
I              -5.52939000      1.15828000     -2.21408000      53
P              -3.99375000      3.98326000     -2.38094000      15
H               1.72668000      5.53508000     -1.96956000       1
H               5.99138000      0.79417100      1.06143000       1
I              -2.29827000      2.86775000     -4.93238000      53
H              -2.46671000      4.96526000      2.67041000       1
H               1.19393000     -5.46442000      2.67041000       1
H              -2.83015000     -1.86574000      5.25919000       1
H               2.70895000      4.85556000     -3.16540000       1
H              -5.82065000      2.40878000      1.25616000       1
I              -5.77606000     -2.94412000     -0.41034600      53
N              -2.07540000     -0.12039100      6.15514000       7
N              -2.48216000      5.73354000      1.96398000       7
H              -3.40183000      5.66258000      1.47217000       1
I               4.96022000     -2.26439000      4.09593000      53
H               1.31062000      5.66011000     -3.57118000       1
P              -0.33310900     -6.44642000     -2.38094000      15
I              -2.25110000     -4.70016000      4.64532000      53
H               1.34313000      2.95627000      6.18867000       1
C              -2.84378000     -1.39112000      6.24215000       6
H               0.37678300     -3.77518000     -5.89911000       1
P              -0.25162800      1.26304000     -6.89915000      15
H               6.30990000      1.76180000      2.53862000       1
H              -6.38640000     -0.00108272      2.92993000       1
I              -1.89928000     -1.44769000     -6.61736000      53
N              -6.65560000      0.88041400      2.43995000       7
H               1.87243000      4.46548000      5.37247000       1
I              -2.50790000     -5.29334000     -4.38720000      53
H              -2.06918000      0.40294100      7.05874000       1
H               4.30105000      1.89556000     -5.69643000       1
I               5.03456000     -2.45351000     -4.93840000      53
P               3.26474000     -1.14887000      6.64737000      15
I              -2.27616000      6.67912000     -2.64620000      53
H               5.38732000     -4.89461000     -1.96956000       1
I              -5.51239000      5.17100000      0.17160100      53
I               5.54197000      5.17100000      0.17160100      53
H              -7.38525000      0.63274900      1.73566000       1
C               1.86652000      3.90722000      6.31085000       6
H              -2.37233000     -2.03509000      6.98800000       1
P               3.34622000      6.56059000      2.12915000      15
I               1.61765000      7.48556000     -0.41034600      53
H              -3.86841000     -1.15121000      6.53230000       1
I              -6.09413000     -2.26439000      4.09593000      53
H              -5.66703000     -4.89461000     -1.96956000       1
H               4.97126000     -4.76957000     -3.57118000       1
H               3.58810000     -6.44875000     -2.49600000       1
H               2.71205000     -3.53575000     -6.48969000       1
H              -1.37467000      7.08910000      3.14139000       1
H               7.61953000     -0.36726100     -1.97072000       1
H              -7.07972000      1.52237000      3.12919000       1
C              -2.33476000      7.06524000      2.62213000       6
H              -4.97252000      1.79155000     -5.88691000       1
I               1.89128000     -7.69396000     -0.39832900      53
H              -4.68476000     -5.57413000     -3.16540000       1
N               0.80090300     -4.41713000     -6.58835000       7
I               1.72909000     -3.97386000      6.81422000      53
H               4.98980000     -0.33228600     -6.35790000       1
H               1.07010000     -5.29863000     -6.09838000       1
N               5.38110000     -5.41794000     -2.87317000       7
P              -7.72018000     -1.21013000     -2.35431000      15
I              -6.01979000     -2.45351000     -4.93840000      53
H               2.88735000      3.74101000      6.66099000       1
I               4.98233000      1.54698000      6.38210000      53
P               7.00686000     -3.86909000      2.12915000      15
I               4.88582000      5.13634000     -4.38720000      53
N              -5.67325000     -5.41794000     -2.87317000       7
I               1.45710000      4.05169000     -7.17386000      53
H              -2.59054000      5.13105000     -6.09838000       1
C               5.12174000      1.76769000     -6.40617000       6
H              -2.37320000      7.83760000      1.85149000       1
H              -2.16002000     -8.02090000      1.25616000       1
C               1.97576000     -3.78791000     -7.25494000       6
P               7.06060000      3.98326000     -2.38094000      15
H               1.63585000     -2.88877000     -7.77215000       1
H              -6.08310000     -4.76957000     -3.57118000       1
H              -3.15545000      7.19311000      3.33187000       1
H               4.05468000      0.36503600     -7.55613000       1
C               4.61272000     -6.68867000     -2.78615000       6
H               0.16302500      4.93029000      7.05758000       1
N               4.97434000      0.43599300     -7.06432000       7
H               6.08183000      1.79155000     -5.88691000       1
H               0.07125520     -4.66480000     -7.29264000       1
H               8.57433000     -1.04397000     -0.76100400       1
I               1.23870000     -7.58565000      4.08991000      53
N               8.60164000     -0.57870400     -1.69288000       7
H              -6.06456000     -0.33228600     -6.35790000       1
N               1.14514000      4.71884000      7.33543000       7
I               5.35921000     -6.57982000      2.41095000      53
P              -3.88101000     -3.88907000     -6.93174000      15
P              -4.12233000      4.08741000      6.67399000      15
C              -5.93261000      1.76769000     -6.40617000       6
I              -6.07202000      1.54698000      6.38210000      53
I               8.71559000     -1.08045000      1.85444000      53
I               5.14261000      5.72953000      4.64532000      53
I              -5.69514000     -6.57982000      2.41095000      53
H              -6.75330000      1.89556000     -5.69643000       1
H               6.36959000     -5.57413000     -3.16540000       1
I               1.94412000     -0.12654700     -8.85670000      53
H              -1.08381000     -8.66788000      2.53862000       1
I               1.36237000     -7.56193000     -4.93238000      53
I              -6.16853000      5.13634000     -4.38720000      53
H               5.08417000     -7.33264000     -2.04031000       1
H               5.08330000      2.54005000     -7.17682000       1
H               9.05567000      0.34276600     -1.54037000       1
I              -2.17821000      2.35343000      8.61796000      53
P              -0.46168900     -6.34227000      6.67399000      15
I               1.29958000      8.16530000      4.09593000      53
I              -9.26621000     -0.09163470      0.19477500      53
C              -1.82010000     -8.92005000      1.77336000       6
H               4.62635000     -7.16329000     -3.76911000       1
N              -6.08001000      0.43599300     -7.06432000       7
I               1.74610000      0.03886510      9.19990000      53
H               1.11782000      4.25358000      8.26730000       1
N              -2.85974000      6.01255000     -6.58835000       7
H              -5.33652000      0.25184300     -7.75409000       1
I              -5.91174000      5.72953000      4.64532000      53
H               2.39353000     -4.50338000     -7.96688000       1
H              -3.28386000      6.65450000     -5.89911000       1
I               1.37392000      7.97617000     -4.93840000      53
H               1.59917000      5.64031000      7.48794000       1
H              -0.94858900      6.89393000     -6.48969000       1
P              -0.32646500      9.21955000     -2.35431000      15
H               8.79963000     -2.34127000     -2.83963000       1
I              -1.93154000      6.45582000      6.81422000      53
H               7.65253000      5.66258000      1.47217000       1
H               5.71783000      0.25184300     -7.75409000       1
H              -5.97018000     -7.33264000     -2.04031000       1
H              -5.97105000      2.54005000     -7.17682000       1
I               9.28499000      2.73572000     -0.39832900      53
C              -6.44163000     -6.68867000     -2.78615000       6
I              -1.86875000     -9.27141000     -2.21408000      53
H               3.82366000     -5.49940000      7.05758000       1
H              -5.52129000     -5.96420000      5.37247000       1
H               5.53307000     -5.96420000      5.37247000       1
H               7.18595000     -1.15121000      6.53230000       1
H              -1.40233000     -9.63551000      1.06143000       1
C               9.32302000     -1.39033000     -2.71745000       6
P               3.37748000     -9.02121000      2.09656000      15
I              -1.98020000      2.18801000     -9.43865000      53
H              -8.76838000     -3.34058000      3.14139000       1
H               8.22420000     -1.86574000      5.25919000       1
H              -3.58938000      5.76488000     -7.29264000       1
I               8.63241000      2.84404000      4.08991000      53
C              -1.68488000      6.64177000     -7.25494000       6
H               5.13900000      8.08841000     -2.83963000       1
H              -1.26711000      5.92631000     -7.96688000       1
H              -3.41908000     -8.90731000      3.12919000       1
H               9.32893000     -0.83206600     -3.65583000       1
P               3.51270000      6.54061000     -6.93174000      15
H              -8.34540000      4.85556000     -3.16540000       1
H              -4.37114000      8.87314000     -2.36732000       1
H               8.56911000      0.52797900      5.45713000       1
H              -7.46625000     -6.44875000     -2.49600000       1
H               8.58765000      4.96526000      2.67041000       1
