200
cutoff_factor=1.20000000 nneightol=1.20000000 Lattice="28.92179000       0.00000000       0.00000000       0.00000000      28.82247000       0.00000000       0.00000000       0.00000000      29.48500000" Properties=species:S:1:pos:R:3:Z:I:1
I              -0.63430300      0.46235500      0.19244000      53
P               1.14485000     -2.20914000      0.01132630      15
H               0.45563200      1.71297000     -1.77930000       1
H               0.03446450      1.29769000      3.17498000       1
N               0.76856100      2.43476000     -2.46327000       7
H               2.18631000      2.06216000      2.36827000       1
I               3.80655000     -0.42283200      0.01269880      53
H              -2.26888000     -1.29679000      2.81642000       1
H               1.34671000      3.11117000     -1.91857000       1
I               0.95043700     -2.10342000     -3.18481000      53
P              -3.32458000      2.27395000      0.01628280      15
H              -0.07968930      2.90494000     -2.81811000       1
I               0.97447600     -2.35494000      3.18479000      53
H              -2.54476000     -2.65742000      1.87480000       1
H               2.46006000      1.36467000     -3.13648000       1
H              -1.66900000     -1.79039000     -3.45917000       1
H               0.96698600      3.37889000      2.36871000       1
N               0.64490700      1.85749000      3.79200000       7
C               1.57000000      1.82802000     -3.56827000       6
H               0.95507200      1.07754000     -4.06781000       1
C               1.56725000      2.71163000      2.99142000       6
I              -1.55387000     -4.05973000     -0.00427290      53
H              -3.66362000     -1.41519000      1.87711000       1
N              -2.99969000     -1.94304000      2.48533000       7
H              -2.83335000     -0.56550300     -3.37467000       1
H              -3.41589000     -2.38355000     -1.84929000       1
H               1.19440000      1.22668000      4.41535000       1
N              -2.66715000     -1.55662000     -3.64144000       7
I              -3.05235000      2.10732000     -3.18271000      53
H               0.05752300      2.45002000      4.41747000       1
I               2.99251000      4.10184000     -0.21176500      53
I              -1.47196000      4.90891000     -0.00427290      53
I              -5.10938000     -0.42283200      0.01269880      53
I              -3.40414000      2.17757000      3.18949000      53
C              -3.59172000     -2.48379000     -2.92245000       6
H               1.85010000      2.61959000     -4.26484000       1
H               2.19016000      3.28818000      3.67904000       1
I               2.91061000     -4.86680000     -0.21176500      53
H              -2.82288000     -1.62327000     -4.66470000       1
H               5.25230000     -1.41519000      1.87711000       1
H               4.29662000     -2.20613000     -3.16796000       1
C              -3.70515000     -2.58045000      3.63481000       6
H              -3.38217000     -3.50446000     -3.25050000       1
H              -4.61931000     -2.20613000     -3.16796000       1
P               5.59134000      2.27395000      0.01628280      15
H              -2.97192000     -3.13013000      4.22959000       1
H               0.88508300     -5.58975000      2.36871000       1
H              -4.17021000     -1.79479000      4.23480000       1
H               5.50003000     -2.38355000     -1.84929000       1
H               1.26481000     -5.85747000     -1.91857000       1
H               4.45146000     -3.26039000      3.24182000       1
H              -4.46447000     -3.26039000      3.24182000       1
I              -0.64051200      0.38421100     -6.44788000      53
C               5.32420000     -2.48379000     -2.92245000       6
H               4.74572000     -1.79479000      4.23480000       1
I              -1.70982000     -0.57088600      6.37246000      53
H              -0.16159200     -6.06370000     -2.81811000       1
N               5.91623000     -1.94304000      2.48533000       7
I               5.51178000      2.17757000      3.18949000      53
C               5.21078000     -2.58045000      3.63481000       6
P               1.22676000      6.75950000      0.01132630      15
P               0.90897600     -2.38979000      6.38300000      15
I               2.67879000      0.29037200      6.34117000      53
P               1.20996000     -2.23316000     -6.40684000      15
H               6.08257000     -0.56550300     -3.37467000       1
I               5.86358000      2.10732000     -3.18271000      53
N               0.68665800     -6.53388000     -2.46327000       7
H              -2.46285000      6.31122000      1.87480000       1
H               2.10826000     -5.68046000      3.67904000       1
C               1.48535000     -6.25701000      2.99142000       6
H               6.37117000     -2.65742000      1.87480000       1
H              -3.30027000      5.46418000     -3.25050000       1
I              -5.92342000      4.10184000     -0.21176500      53
H              -6.45586000      1.36467000     -3.13648000       1
H               5.53375000     -3.50446000     -3.25050000       1
H               6.64704000     -1.29679000      2.81642000       1
N               6.24877000     -1.55662000     -3.64144000       7
I               1.05638000      6.61370000      3.18479000      53
H              -6.72961000      2.06216000      2.36827000       1
I               3.90255000     -0.41189400     -6.36781000      53
H               0.37372900     -7.25567000     -1.77930000       1
P              -3.40649000     -6.69470000      0.01628280      15
P              -3.18561000      2.30243000     -6.41546000      15
I              -0.83687700      3.86453000      6.43065000      53
P              -3.52947000      2.04326000      6.39162000      15
H               2.10441000     -6.90649000      2.36827000       1
H              -3.33399000      6.58509000     -1.84929000       1
I               1.03234000      6.86522000     -3.18481000      53
I              -6.00532000     -4.86680000     -0.21176500      53
I              -1.49771000     -3.98605000     -6.45730000      53
H              -2.89002000      5.83851000      4.22959000       1
H               6.09304000     -1.62327000     -4.66470000       1
H               1.76819000     -6.34906000     -4.26484000       1
H              -0.02438010     -6.51862000      4.41747000       1
H              -4.38256000      5.70825000      3.24182000       1
C              -3.50982000      6.48485000     -2.92245000       6
H               5.94400000     -3.13013000      4.22959000       1
H               4.53336000      5.70825000      3.24182000       1
N              -2.91779000      7.02560000      2.48533000       7
N               0.56300400     -7.11115000      3.79200000       7
P              -7.77107000     -2.20914000      0.01132630      15
I              -5.01337000     -0.41189400     -6.36781000      53
C               1.48809000     -7.14062000     -3.56827000       6
H              -1.58710000      7.17825000     -3.45917000       1
I              -3.13425000     -6.86132000     -3.18271000      53
C              -3.62324000      6.38819000      3.63481000       6
H               7.24692000     -1.79039000     -3.45917000       1
I               3.11151000      4.12133000     -6.42600000      53
I              -0.91878000     -5.10411000      6.43065000      53
I              -3.48604000     -6.79107000      3.18949000      53
I              -1.41580000      4.98259000     -6.45730000      53
I               8.28162000      0.46235500      0.19244000      53
H              -0.04743860     -7.67095000      3.17498000       1
H              -6.72576000      3.28818000      3.67904000       1
C              -7.34593000      1.82802000     -3.56827000       6
C              -7.34868000      2.71163000      2.99142000       6
H              -7.56922000      3.11117000     -1.91857000       1
I               7.36206000     -4.05973000     -0.00427290      53
I               3.45408000     -4.30801000      6.35059000      53
H              -2.18698000      7.67185000      2.81642000       1
H               5.61566000      5.46418000     -3.25050000       1
I              -0.71620600     -8.50629000      0.19244000      53
H               2.37816000     -7.60397000     -3.13648000       1
H              -3.58172000      7.55346000      1.87711000       1
I               3.02961000     -4.84731000     -6.42600000      53
P               5.38646000      2.04326000      6.39162000      15
I               3.53598000      4.66063000      6.35059000      53
N              -2.58525000      7.41202000     -3.64144000       7
H               4.37852000      6.76251000     -3.16796000       1
H              -7.06583000      2.61959000     -4.26484000       1
H               1.35361000      2.65315000      8.13376000       1
P               5.50944000     -6.69470000      0.01628280      15
H              -4.53740000      6.76251000     -3.16796000       1
H              -8.46029000      1.71297000     -1.77930000       1
H               5.58193000      6.58509000     -1.84929000       1
I              -7.96549000     -2.10342000     -3.18481000      53
N              -8.14736000      2.43476000     -2.46327000       7
I              -7.94145000     -2.35494000      3.18479000      53
I              -6.23714000      0.29037200      6.34117000      53
H               1.84941000      1.56209000     -8.56887000       1
P               5.73031000      2.30243000     -6.41546000      15
I               7.44396000      4.90891000     -0.00427290      53
H               0.87316900     -7.89110000     -4.06781000       1
C               5.40611000      6.48485000     -2.92245000       6
H              -7.94894000      3.37889000      2.36871000       1
H              -7.72152000      1.22668000      4.41535000       1
H               1.11250000     -7.74196000      4.41535000       1
H              -7.96085000      1.07754000     -4.06781000       1
C               5.29268000      6.38819000      3.63481000       6
H               0.65112800      2.89743000     -8.56366000       1
H              -2.74098000      7.34537000     -4.66470000       1
H               6.45307000      6.31122000      1.87480000       1
P               0.99087900      6.57885000      6.38300000      15
I               5.42988000     -6.79107000      3.18949000      53
H              -2.97124000     -2.07263000      8.53363000       1
H              -4.08830000      7.17385000      4.23480000       1
N              -8.27102000      1.85749000      3.79200000       7
P               1.29187000      6.73548000     -6.40684000      15
H              -1.98633000     -0.98824000     -9.11942000       1
I               3.88845000      8.54581000      0.01269880      53
H               6.02591000      5.83851000      4.22959000       1
H              -2.98209000     -3.04974000     -8.38311000       1
I              -5.46185000     -4.30801000      6.35059000      53
H               5.33421000      7.55346000      1.87711000       1
I              -0.55240000      9.43100000      0.19244000      53
H              -2.75145000      8.40314000     -3.37467000       1
C               1.11619000      2.11177000     -9.16365000       6
H              -4.11897000     -1.82640000     -8.38100000       1
I               5.78167000     -6.86132000     -3.18271000      53
H              -8.88146000      1.29769000      3.17498000       1
I              -5.37994000      4.66063000      6.35059000      53
I              -9.55023000      0.46235500      0.19244000      53
N               5.99814000      7.02560000      2.48533000       7
H               8.95039000      1.29769000      3.17498000       1
I              -5.80441000      4.12133000     -6.42600000      53
H              -6.80767000     -5.68046000      3.67904000       1
H               0.79432300      0.77196100      9.54797000       1
H               4.82762000      7.17385000      4.23480000       1
I               7.20610000     -0.57088600      6.37246000      53
H               0.35686700      1.43183000     -9.55664000       1
N               1.50934000      2.71980000      9.15702000       7
H               9.37156000      1.71297000     -1.77930000       1
H               8.83623000      2.90494000     -2.81811000       1
P              -3.26752000     -6.66621000     -6.41546000      15
H              -7.65112000     -5.85747000     -1.91857000       1
H               4.79695000     -1.82640000     -8.38100000       1
H              -0.44281500      2.07029000      9.63050000       1
H              -8.99561000      2.90494000     -2.81811000       1
I              -5.02747000      8.54581000      0.01269880      53
I               1.33529000     -2.09885000     -9.60898000      53
I              -5.88631000     -4.84731000     -6.42600000      53
N              -3.53159000     -2.41893000     -9.00647000       7
H               2.50749000      2.48603000      9.33930000       1
H              -6.81152000     -6.90649000      2.36827000       1
I               1.04224000     -2.58490000      9.61576000      53
C               0.58477300      1.79263000      9.87602000       6
H              -8.03084000     -5.58975000      2.36871000       1
P              -3.61137000     -6.92538000      6.39162000      15
I               3.72464000     -9.39147000      0.01269880      53
C              -7.43058000     -6.25701000      2.99142000       6
