200
cutoff_factor=1.20000000 nneightol=1.20000000 Lattice="28.92654000       0.00000000       0.00000000       0.00000000      29.50998000       0.00000000       0.00000000       0.00000000      29.27343000" Properties=species:S:1:pos:R:3:Z:I:1
H              -0.88048300      0.63680600     -0.75217400       1
C              -1.70433000      0.58400500     -1.46715000       6
I               1.53307000      1.87023000      0.85620300      53
H              -1.72301000     -1.49041000     -1.41788000       1
N              -1.65735000     -0.74284900     -2.14635000       7
H              -0.76047800     -0.88165400     -2.66339000       1
H              -2.66334000      0.67605800     -0.95232600       1
H              -1.60175000      1.36152000     -2.22698000       1
H               0.06911080      0.11615400      3.50632000       1
I              -1.64769000     -3.14997000      0.41723100      53
H              -2.44005000     -0.85804100     -2.82318000       1
H              -0.89312900     -1.39807000      3.49613000       1
C              -0.55460800     -0.55445400      4.10146000       6
H               1.89487000      3.65072000     -0.80350100       1
P               3.94508000     -0.03514230      1.56107000      15
H              -2.32493000      0.56097800      3.76708000       1
I              -3.72457000      1.60038000      1.96098000      53
I               1.22445000     -1.60571000     -4.03560000      53
H               1.43697000      3.28997000      3.14928000       1
N              -1.75180000      0.20180200      4.56271000       7
I               4.65779000     -0.47234100     -1.42725000      53
I               3.45307000     -3.13094000      1.93686000      53
P               0.81588400     -4.77815000      1.42742000      15
H              -0.00777320     -0.90719100      4.97891000       1
I              -2.51302000      4.17117000     -1.55959000      53
N               2.19535000      4.44961000     -1.40971000       7
H               0.38496500      4.58934000     -2.47625000       1
H               2.75531000      4.07026000     -2.20535000       1
H              -1.47000000      1.02125000      5.14717000       1
I               3.10389000      0.46773300      4.54520000      53
H              -3.34203000     -4.43347000     -0.82525700       1
C               1.02014000      5.23962000     -1.87093000       6
H              -2.36139000     -0.39562500      5.16891000       1
H               0.47669100      5.59751000     -0.99347100       1
N               1.22638000      4.05252000      3.82613000       7
I               1.66644000     -5.30053000     -1.55959000      53
H               2.83131000      5.03824000     -0.82525700       1
P               3.85811000      0.09423390     -4.41138000      15
H               0.56893000      3.69064000      4.55458000       1
I              -5.69501000     -0.47234100     -1.42725000      53
H               0.73732900      4.81706000      3.30911000       1
P              -3.36357000      4.69355000      1.42742000      15
I              -0.10573000     -4.21822000      4.41286000      53
H               4.65615000     -3.87419000     -0.99347100       1
H              -4.79147000     -3.39073000     -2.46608000       1
I              -0.91327900      3.19160000     -5.55522000      53
I              -3.77776000     -1.34333000     -5.11625000      53
N              -3.97799000     -5.02209000     -1.40971000       7
P               0.78207700     -4.68343000     -4.54504000      15
P              -6.40771000     -0.03514230      1.56107000      15
H              -3.04413000     -4.51877000      3.74558000       1
I              -0.72639000      6.34077000      1.93686000      53
I               4.27124000      3.20929000     -4.01146000      53
H               1.38187000      6.08098000     -2.46608000       1
H              -3.41803000     -5.40144000     -2.20535000       1
C               2.45925000      4.54516000      4.50538000       6
H               2.93062000      3.70489000      5.02017000       1
C              -5.15319000     -4.23209000     -1.87093000       6
H               3.12920000      4.95293000      3.74558000       1
C               5.19960000     -4.23209000     -1.87093000       6
H              -5.69664000     -3.87419000     -0.99347100       1
H               5.56133000     -3.39073000     -2.46608000       1
H               0.05872770     -0.80512400     -6.96600000       1
H              -1.40350000      1.12332000     -6.79773000       1
I               6.62822000      1.60038000      1.96098000      53
H               4.56442000     -4.88236000     -2.47625000       1
H              -2.29489000     -0.29355800     -6.77599000       1
I              -0.97978000      3.08953000      6.38968000      53
H              -4.27847000     -5.82098000     -0.80350100       1
P              -3.39738000      4.78827000     -4.54504000      15
H               4.91679000     -4.65464000      3.30911000       1
N              -1.68530000      0.30386900     -7.38220000       7
C              -3.71408000     -4.92655000      4.50538000       6
I              -1.90210000     -6.26242000     -4.01146000      53
H               2.17497000      5.32016000      5.22039000       1
H              -3.99836000     -4.15154000      5.22039000       1
H               7.68945000      0.67605800     -0.95232600       1
I               4.52564000      6.32173000      0.41723100      53
I              -6.89972000     -3.13094000      1.93686000      53
P              -6.49468000      0.09423390     -4.41138000      15
C              -0.48810700     -0.45238800     -7.84344000       6
H              -5.43601000     -4.65464000      3.30911000       1
I              -6.08156000      3.20929000     -4.01146000      53
H              -5.78837000     -4.88236000     -2.47625000       1
I              -3.84427000     -1.44540000      6.82865000      53
I               3.17039000      0.56980000     -7.39970000      53
I              -4.28519000      5.25348000      4.41286000      53
I               0.45488800     -7.87132000      1.96098000      53
I               1.15795000     -1.70777000      7.90930000      53
N               6.37481000     -5.02209000     -1.40971000       7
N              -4.94695000     -5.41918000      3.82613000       7
H              -3.24271000     -5.76681000      5.02017000       1
H               0.63543100      3.79270000     -7.39032000       1
H               7.01077000     -4.43347000     -0.82525700       1
H              -4.73637000     -6.18174000      3.14928000       1
P               3.79161000     -0.00783267      7.53352000      15
I               6.57503000     -1.34333000     -5.11625000      53
H               0.13561200      0.21822100     -8.43858000       1
H               7.91275000     -0.85804100     -2.82318000       1
H               6.07433000     -5.82098000     -0.80350100       1
H               2.99712000      3.80696000     -6.92474000       1
H              -2.25843000      0.66304500     -8.17783000       1
P               6.98922000      4.69355000      1.42742000      15
N               5.40584000     -5.41918000      3.82613000       7
I              -7.24890000      0.46773300      4.54520000      53
I              -0.03922930     -4.11615000     -7.53204000      53
H              -0.82662800     -1.29601000     -8.44878000       1
I              -5.82715000      6.32173000      0.41723100      53
H               4.74839000     -5.78107000      4.55458000       1
H              -3.93186000     -4.04948000     -6.72451000       1
C               8.64846000      0.58400500     -1.46715000       6
H               2.57771000     -8.11018000     -2.22698000       1
P               0.71557700     -4.78550000      7.39987000      15
H               8.62978000     -1.49041000     -1.41788000       1
H               8.02787000      0.56097800      3.76708000       1
H              -7.59749000      4.07026000     -2.20535000       1
H               2.24147000      5.42223000     -6.72451000       1
H               5.61643000     -6.18174000      3.14928000       1
I              -4.64027000     -7.60147000      0.85620300      53
H               1.51612000     -8.79565000     -0.95232600       1
N               8.69545000     -0.74284900     -2.14635000       7
I               3.26618000     -6.28011000     -5.55522000      53
I               7.83977000      4.17117000     -1.55959000      53
I              -8.81973000      1.87023000      0.85620300      53
H               6.93476000     -5.40144000     -2.20535000       1
H              -7.52148000      5.03824000     -0.82525700       1
I               0.47833000      8.99936000     -1.42725000      53
C               2.52575000      4.64722000     -7.43952000       6
H               8.75104000      1.36152000     -2.22698000       1
I               6.06761000      5.25348000      4.41286000      53
N               1.29288000      4.15459000     -8.11877000       7
H               6.35443000     -4.15154000      5.22039000       1
H              -8.45793000      3.65072000     -0.80350100       1
H               4.45032000      7.98129000     -1.41788000       1
H              -5.60441000     -5.78107000      4.55458000       1
I               8.70510000     -3.14997000      0.41723100      53
I              -2.95501000      7.86600000     -4.03560000      53
C               2.47512000     -8.88770000     -1.46715000       6
H              -0.82697900     -0.98372000      9.28152000       1
H               7.30866000     -4.51877000      3.74558000       1
N              -8.15744000      4.44961000     -1.40971000       7
C               6.63871000     -4.92655000      4.50538000       6
P              -3.46388000      4.68621000      7.39987000      15
H               3.29897000     -8.83490000     -0.75217400       1
H              -3.17621000     -5.66474000     -6.92474000       1
I               4.20474000      3.10722000      7.93345000      53
H              -2.50655000     -0.96010700      9.12172000       1
H               9.47231000      0.63680600     -0.75217400       1
H               7.99140000     -0.39562500      5.16891000       1
H              -7.22359000      4.95293000      3.74558000       1
I               6.50853000     -1.44540000      6.82865000      53
H               1.50347000      3.39203000     -8.79563000       1
I               5.71253000     -7.60147000      0.85620300      53
P              -0.23437700      9.43656000      1.56107000      15
I               3.19968000     -6.38217000      6.38968000      53
C              -3.64758000     -4.82448000     -7.43952000       6
P               6.95541000      4.78827000     -4.54504000      15
H              -7.42217000      3.70489000      5.02017000       1
N               8.60099000      0.20180200      4.56271000       7
H              -2.97763000     -4.41671000     -8.19933000       1
H               3.73329000      8.61366000     -2.82318000       1
H               1.85453000     -8.91072000      3.76708000       1
P              -2.22825000     -9.50684000      1.56107000      15
I               2.39557000      8.12837000     -5.11625000      53
H              -1.66825000      1.25945000      9.71792000       1
H               0.80383000      4.91913000     -8.63579000       1
N              -1.72385000     -0.84491500      9.79856000       7
P              -6.56119000     -0.00783267      7.53352000      15
H               9.59232000     -0.88165400     -2.66339000       1
H              -8.91583000      3.28997000      3.14928000       1
H              -5.90247000      7.98129000     -1.41788000       1
N               4.51599000      8.72885000     -2.14635000       7
I              -9.12835000     -1.60571000     -4.03560000      53
H               6.42093000     -4.04948000     -6.72451000       1
H               3.19570000      5.05499000     -8.19933000       1
H              -5.07259000      8.07363000      3.49613000       1
I              -4.21869000      5.35555000     -7.53204000      53
I              -1.51555000     -9.94404000     -1.42725000      53
C              -7.89354000      4.54516000      4.50538000       6
H               9.45966000     -1.39807000      3.49613000       1
H               2.70945000     -8.45045000      5.14717000       1
H              -4.93994000      8.59005000     -2.66339000       1
H               5.28021000      8.07363000      3.49613000       1
I              -8.68636000     -5.30053000     -1.55959000      53
H               8.88279000      1.02125000      5.14717000       1
I              -7.18240000      0.56980000     -7.39970000      53
I              -1.96860000     -6.36448000      7.93345000      53
H               7.11008000     -5.76681000      5.02017000       1
H               0.31846500      4.48727000      9.46866000       1
H               4.81489000     -5.67900000     -7.39032000       1
H               5.41286000      8.59005000     -2.66339000       1
I              -6.14806000      3.10722000      7.93345000      53
H               8.05790000     -0.29355800     -6.77599000       1
P              -0.32134900      9.56594000     -4.41138000      15
I              -3.06944000     -9.00397000      4.54520000      53
N               2.42765000     -9.26990000      4.56271000       7
P              -2.31523000     -9.37747000     -4.41138000      15
C               9.79819000     -0.55445400      4.10146000       6
C              -1.77083000      0.48193800     10.47780000       6
N              -9.12641000      4.05252000      3.82613000       7
