200
cutoff_factor=1.20000000 nneightol=1.20000000 Lattice="29.27845000       0.00000000       0.00000000       0.00000000      28.78430000       0.00000000       0.00000000       0.00000000      29.22220000" Properties=species:S:1:pos:R:3:Z:I:1
I               0.84437200      0.30967300      0.09570900      53
H              -0.33390200      1.57525000     -1.80539000       1
P              -1.02822000     -2.29844000      0.01150520      15
H              -0.08250720      1.58718000      2.84257000       1
H              -1.65563000      1.96506000      2.06523000       1
N              -0.60662100      2.31583000     -2.48649000       7
H               2.29846000     -1.12663000      2.50671000       1
I              -3.62811000     -0.42525600      0.00374187      53
C              -0.84466500      2.35371000      2.68546000       6
H              -1.12729000      3.03863000     -1.94697000       1
H               0.28002700      2.70741000     -2.85325000       1
H              -0.40417000      3.24160000      2.22619000       1
I              -0.84466500     -2.20300000     -3.19670000      53
P               3.45940000      2.24077000      0.00242720      15
I              -0.97782200     -2.42481000      3.20580000      53
H              -2.37357000      1.36045000     -3.13737000       1
H               2.63689000     -2.64011000      1.87431000       1
C              -1.45473000      1.75284000     -3.57912000       6
H              -0.89738700      0.95353800     -4.07101000       1
N               3.04256000     -1.83444000      2.39905000       7
H               2.00384000     -1.78923000     -3.40232000       1
H               3.78038000     -1.41963000      1.78864000       1
I               1.63670000     -4.16619000      0.08297260      53
I              -2.84759000      4.05994000     -0.22007500      53
I               3.08963000      2.28642000     -3.20458000      53
H               4.06443000     -2.03915000     -2.11120000       1
N              -1.40545000      2.73716000      4.01092000       7
I               1.56798000      4.85849000      0.08297260      53
I               3.43455000      2.21379000      3.20202000      53
H              -1.84478000      1.92804000      4.50039000       1
N               2.87386000     -2.13252000     -3.84952000       7
H              -1.68065000      2.55279000     -4.28593000       1
I               5.28562000     -0.42525600      0.00374187      53
H               3.27566000     -3.62194000     -2.41000000       1
C               3.79518000     -2.77782000     -2.86757000       6
H              -5.13335000     -1.41963000      1.78864000       1
H              -0.66481000      3.11121000      4.64098000       1
C               3.59506000     -2.24697000      3.72140000       6
H              -2.12286000      3.47626000      3.91768000       1
H               3.35168000     -1.35729000     -4.34980000       1
H              -4.84930000     -2.03915000     -2.11120000       1
I              -2.77887000     -4.96474000     -0.22007500      53
H               2.78615000     -2.67768000      4.31600000       1
P              -5.45433000      2.24077000      0.00242720      15
H               2.57583000     -2.81933000     -4.57533000       1
H               4.00400000     -1.36333000      4.21677000       1
H              -0.33545000     -5.78308000      2.22619000       1
H              -4.22932000     -3.12161000     -3.40099000       1
H               4.38020000     -2.98713000      3.55154000       1
H              -1.05857000     -5.98605000     -1.94697000       1
H              -4.53353000     -2.98713000      3.55154000       1
C              -5.11855000     -2.77782000     -2.86757000       6
I               0.73480100      0.30273900     -6.49135000      53
H               4.68441000     -3.12161000     -3.40099000       1
N              -5.87117000     -1.83444000      2.39905000       7
H              -4.90973000     -1.36333000      4.21677000       1
I               1.58689000     -0.40502200      6.46975000      53
I              -5.47918000      2.21379000      3.20202000      53
H               3.20694000      5.40274000     -2.41000000       1
P              -1.09694000      6.72625000      0.01150520      15
P              -0.99390100     -2.23833000      6.40127000      15
C              -5.31867000     -2.24697000      3.72140000       6
P              -1.18824000     -2.30227000     -6.40741000      15
I              -2.80951000      0.39224700      6.30832000      53
H               0.34874600     -6.31727000     -2.85325000       1
I              -5.82410000      2.28642000     -3.20458000      53
H              -6.27685000     -2.64011000      1.87431000       1
H              -2.05414000     -5.54842000      3.91768000       1
H              -5.63807000     -3.62194000     -2.41000000       1
H               2.56817000      6.38457000      1.87431000       1
H              -6.61528000     -1.12663000      2.50671000       1
N              -0.53790200     -6.70885000     -2.48649000       7
H              -5.56205000     -1.35729000     -4.34980000       1
C              -0.77594500     -6.67098000      2.68546000       6
I               6.06614000      4.05994000     -0.22007500      53
I              -3.82359000     -0.44258000     -6.24756000      53
H               6.54016000      1.36045000     -3.13737000       1
I              -1.04654000      6.59988000      3.20580000      53
N              -6.03988000     -2.13252000     -3.84952000       7
H              -1.58691000     -7.05963000      2.06523000       1
H              -0.59609100     -5.91347000      4.64098000       1
P               3.27680000      2.28955000     -6.41313000      15
P               3.38608000      2.19453000      6.40700000      15
N              -1.33673000     -6.28753000      4.01092000       7
I              -0.91338400      6.82168000     -3.19670000      53
P               3.52812000     -6.78391000      0.00242720      15
H              -0.26518200     -7.44943000     -1.80539000       1
I               0.75072300      4.05422000      6.56684000      53
H               7.25810000      1.96506000      2.06523000       1
C               3.72646000      6.24686000     -2.86757000       6
I               1.52991000     -4.10455000     -6.50608000      53
I               6.13486000     -4.96474000     -0.22007500      53
H              -6.90989000     -1.78923000     -3.40232000       1
H              -1.61193000     -6.47190000     -4.28593000       1
H              -6.12758000     -2.67768000      4.31600000       1
H              -0.01378760     -7.43750000      2.84257000       1
H              -4.29804000      5.90307000     -3.40099000       1
I               5.09014000     -0.44258000     -6.24756000      53
I              -8.06936000      0.30967300      0.09570900      53
I               3.15835000     -6.73827000     -3.20458000      53
H               2.50711000      6.20535000     -4.57533000       1
H               2.71743000      6.34700000      4.31600000       1
N               2.97384000      7.19024000      2.39905000       7
I              -3.05615000      4.12286000     -6.34465000      53
P               7.88551000     -2.29844000      0.01150520      15
H              -5.70679000      5.40274000     -2.41000000       1
C              -1.38601000     -7.27184000     -3.57912000       6
H               4.31148000      6.03755000      3.55154000       1
H               1.93512000      7.23545000     -3.40232000       1
H               4.61570000      5.90307000     -3.40099000       1
I               0.81944300     -4.97046000      6.56684000      53
I               1.46119000      4.92013000     -6.50608000      53
I               3.50327000     -6.81089000      3.20202000      53
H              -6.33790000     -2.81933000     -4.57533000       1
H               3.99571000      6.98553000     -2.11120000       1
N               2.80514000      6.89216000     -3.84952000       7
H              -4.60225000      6.03755000      3.55154000       1
I              -7.27703000     -4.16619000      0.08297260      53
I              -3.53590000     -4.22514000      6.32305000      53
C               7.45901000      1.75284000     -3.57912000       6
C               3.52634000      6.77772000      3.72140000       6
I              -2.98743000     -4.90182000     -6.34465000      53
H               6.79087000      3.47626000      3.91768000       1
H               2.22974000      7.89805000      2.50671000       1
H               7.78644000      3.03863000     -1.94697000       1
H              -1.77606000     -7.09664000      4.50039000       1
H              -1.76359000      1.67747000      8.23908000       1
H              -2.30485000     -7.66423000     -3.13737000       1
H               7.06895000      1.92804000      4.50039000       1
C              -5.18727000      6.24686000     -2.86757000       6
H               3.71166000      7.60505000      1.78864000       1
P              -5.38561000     -6.78391000      0.00242720      15
I              -3.60462000      4.79954000      6.32305000      53
P              -5.52765000      2.19453000      6.40700000      15
I               0.91309200     -8.71501000      0.09570900      53
H               7.23308000      2.55279000     -4.28593000       1
I               6.10423000      0.39224700      6.30832000      53
H              -4.91802000      6.98553000     -2.11120000       1
I              -7.34575000      4.85849000      0.08297260      53
C               8.06907000      2.35371000      2.68546000       6
P              -5.63694000      2.28955000     -6.41313000      15
H              -1.85688000      1.85020000     -8.49841000       1
I               7.93591000     -2.42481000      3.20580000      53
H               8.57983000      1.57525000     -1.80539000       1
N               7.50828000      2.73716000      4.01092000       7
I               8.06907000     -2.20300000     -3.19670000      53
N               8.30711000      2.31583000     -2.48649000       7
H               8.01634000      0.95353800     -4.07101000       1
H               2.49464000     -2.56876000     -8.31401000       1
H               3.67461000     -1.38559000     -8.17342000       1
H              -0.82866700     -8.07115000     -4.07101000       1
H              -0.98773800      3.13951000      8.46460000       1
H              -0.63903600      3.16455000     -8.59764000       1
H              -6.34557000      6.38457000      1.87431000       1
H               2.21655000     -1.02054000     -8.89672000       1
H               2.96238000     -1.97510000      8.52848000       1
I              -5.41046000     -6.81089000      3.20202000      53
I               5.37784000     -4.22514000      6.32305000      53
I              -3.69683000      8.59943000      0.00374187      53
I               0.77565300      9.33436000      0.09570900      53
P              -1.25696000      6.72241000     -6.40741000      15
H               8.50956000      3.24160000      2.22619000       1
H              -5.20207000      7.60505000      1.78864000       1
N              -1.46556000      2.36428000      8.96488000       7
P              -1.06262000      6.78635000      6.40127000      15
H              -0.26283300      1.54075000     -9.26287000       1
H               3.28296000      7.66739000     -4.34980000       1
H               8.83122000      1.58718000      2.84257000       1
I              -5.75538000     -6.73827000     -3.20458000      53
C              -5.38739000      6.77772000      3.72140000       6
C              -1.04797000      2.28092000     -9.09300000       6
N               2.93396000     -1.75964000     -8.80348000       7
H              -8.63370000      2.70741000     -2.85325000       1
H               0.34499800      1.37519000      9.41341000       1
I               5.30912000      4.79954000      6.32305000      53
H              -9.24763000      1.57525000     -1.80539000       1
H              -8.99624000      1.58718000      2.84257000       1
I               5.85759000      4.12286000     -6.34465000      53
H               3.93528000      7.66135000      4.21677000       1
N              -5.93989000      7.19024000      2.39905000       7
H               6.85959000     -5.54842000      3.91768000       1
I               9.75810000      0.30967300      0.09570900      53
I              -7.32684000     -0.40502200      6.46975000      53
H              -5.23913000     -1.38559000     -8.17342000       1
H              -6.19630000      6.34700000      4.31600000       1
P               3.34552000     -6.73513000     -6.41313000      15
I              -1.18106000     -2.24147000      9.60982000      53
I              -1.13977000     -2.28301000     -9.61238000      53
H               8.24892000      3.11121000      4.64098000       1
I               5.92631000     -4.90182000     -6.34465000      53
N              -6.10860000      6.89216000     -3.84952000       7
P               3.45480000     -6.83015000      6.40700000      15
H               9.19376000      2.70741000     -2.85325000       1
H              -6.40662000      6.20535000     -4.57533000       1
I               5.21690000      8.59943000      0.00374187      53
H              -4.97845000      7.66135000      4.21677000       1
H               7.85516000     -5.98605000     -1.94697000       1
H              -2.33558000      2.70757000      9.41209000       1
I              -3.55939000     -9.44994000      0.00374187      53
N              -9.52035000      2.31583000     -2.48649000       7
