200
cutoff_factor=1.20000000 nneightol=1.20000000 Lattice="28.48585000       0.00000000       0.00000000       0.00000000      29.45248000       0.00000000       0.00000000       0.00000000      29.45376000" Properties=species:S:1:pos:R:3:Z:I:1
H              -0.02620530     -1.02479000     -1.66753000       1
I              -2.13564000      0.45607100      0.36426700      53
I               2.27038000      0.65120600     -0.31290700      53
H               0.09113310     -0.71390500      2.31761000       1
N              -0.34030100     -0.94740700     -2.64818000       7
P              -0.05191630      2.88628000      0.00631150      15
H              -0.32889900      0.06758340     -2.88929000       1
H               0.36906500     -2.38073000      1.71253000       1
C              -0.15231900     -1.77016000      2.45296000       6
H              -1.33402000     -1.25883000     -2.71765000       1
H              -1.23138000     -1.92565000      2.38584000       1
C               0.54062200     -1.72103000     -3.56046000       6
H               1.56109000     -1.34503000     -3.45703000       1
I              -0.49930200      2.53998000     -3.25846000      53
H               0.49145100     -2.77501000     -3.27746000       1
I               2.09123000     -3.80155000     -0.61246000      53
N               0.29766900     -2.18524000      3.80653000       7
I               0.56079900      3.15274000      3.18758000      53
H               1.32741000     -2.04764000      3.88085000       1
I              -2.35182000     -4.07444000      0.26852100      53
P               4.41109000     -1.70638000      0.05574760      15
P              -4.47715000     -1.70638000      0.05574760      15
H              -0.19135300     -1.62939000      4.53962000       1
H               0.18472700     -1.58332000     -4.58403000       1
H              -3.22763000      1.83449000      3.15516000       1
H              -3.81908000      2.26717000     -2.06798000       1
H               4.07200000      1.55681000      2.36735000       1
H               3.66360000      1.68906000     -3.02301000       1
H               0.10727700     -3.19411000      3.94760000       1
I              -3.75815000     -1.71884000     -3.23443000      53
I               3.83745000     -1.77902000      3.21244000      53
H              -3.95435000      3.11111000      2.12401000       1
C              -4.15932000      2.29982000      2.82524000       6
I              -2.43659000      4.96925000      0.26852100      53
H              -4.81624000      1.55681000      2.36735000       1
I               2.00647000      5.24214000     -0.61246000      53
H              -3.69850000      2.13510000     -3.85408000       1
H               3.41154000      4.02225000     -2.36200000       1
C              -4.35966000      2.35610000     -3.01314000       6
H               3.13612000      3.30492000      3.73556000       1
H               5.06916000      2.26717000     -2.06798000       1
C               4.52858000      2.35610000     -3.01314000       6
C               4.72892000      2.29982000      2.82524000       6
I              -1.75593000      0.10378100      5.81016000      53
P               0.03284370     -6.15741000      0.00631150      15
H               4.93389000      3.11111000      2.12401000       1
I              -5.05079000     -1.77902000      3.21244000      53
H              -5.22464000      1.68906000     -3.02301000       1
I               5.13009000     -1.71884000     -3.23443000      53
N               4.04316000      3.76184000     -3.15019000       7
N               4.03871000      2.86917000      4.01557000       7
H               3.80330000      2.12923000      4.70777000       1
H               3.49630000     -5.02144000     -2.36200000       1
H               3.50977000      3.91060000     -4.03027000       1
I              -6.61786000      0.65120600     -0.31290700      53
I               0.64555900     -5.89095000      3.18758000      53
H               5.66061000      1.83449000      3.15516000       1
I               2.69562000      0.79310800     -6.14352000      53
I               6.75260000      0.45607100      0.36426700      53
H              -4.06565000      4.44377000     -3.13896000       1
H               5.18975000      2.13510000     -3.85408000       1
H              -3.98089000     -4.59992000     -3.13896000       1
H               0.28430500      6.66296000      1.71253000       1
N              -4.84508000      3.76184000     -3.15019000       7
N              -4.84953000      2.86917000      4.01557000       7
P              -0.02734930      2.71196000      6.37163000      15
P               0.04690110      2.71269000     -6.39368000      15
H               0.02251670      5.84958000      3.94760000       1
H               0.40669100      6.26867000     -3.27746000       1
H              -4.24692000      3.56835000      4.50034000       1
I              -1.68167000      0.10450900     -6.95515000      53
I               2.62137000      0.79238100      6.62180000      53
H              -5.47670000      4.02225000     -2.36200000       1
H              -5.08494000      2.12923000      4.70777000       1
H               4.82259000      4.44377000     -3.13896000       1
I              -0.41454200     -6.50370000     -3.25846000      53
H               4.64132000      3.56835000      4.50034000       1
H              -3.86959000     -5.93258000      2.12401000       1
N               4.12792000     -5.28184000     -3.15019000       7
H               4.90735000     -4.59992000     -3.13896000       1
I               2.23018000     -3.86893000     -5.93737000      53
H               3.59453000     -5.13309000     -4.03027000       1
H               3.22088000     -5.73877000      3.73556000       1
H              -5.75212000      3.30492000      3.73556000       1
H              -1.31614000      7.11803000      2.38584000       1
C              -0.23707900      7.27353000      2.45296000       6
I               6.53642000     -4.07444000      0.26852100      53
H              -5.39194000     -5.02144000     -2.36200000       1
I              -2.40943000     -4.32640000      5.98937000      53
H              -5.37847000      3.91060000     -4.03027000       1
N              -4.76032000     -5.28184000     -3.15019000       7
I              -6.79701000     -3.80155000     -0.61246000      53
N               0.21290900      6.85845000      3.80653000       7
P              -4.29271000     -1.73994000      6.33990000      15
P              -4.21846000     -1.73921000     -6.42542000      15
H              -3.73432000     -6.77651000     -2.06798000       1
P               4.59553000     -1.73994000      6.33990000      15
I              -2.49419000      4.71728000      5.98937000      53
H               5.01865000     -5.93258000      2.12401000       1
H               1.24265000      6.99605000      3.88085000       1
H               7.55422000     -1.25883000     -2.71765000       1
P               4.66979000     -1.73921000     -6.42542000      15
I               2.15593000     -3.86965000      6.82794000      53
I               6.45166000      4.96925000      0.26852100      53
C               0.45586200      7.32266000     -3.56046000       6
I               2.14542000      5.17476000     -5.93737000      53
H              -0.11096500      8.01890000     -1.66753000       1
H              -7.32715000     -1.34503000     -3.45703000       1
H              -4.16216000     -5.47533000      4.50034000       1
H               7.65687000     -1.92565000      2.38584000       1
H               0.11047600     -1.58404000      8.18128000       1
H              -1.41878000      7.78486000     -2.71765000       1
C              -4.07456000     -6.74387000      2.82524000       6
I              -2.33518000     -4.32568000     -6.77594000      53
H              -0.11710200     -1.62867000     -8.22570000       1
H              -5.29371000     -5.13309000     -4.03027000       1
N               4.12347000     -6.17452000      4.01557000       7
H              -3.14287000     -7.20920000      3.15516000       1
C              -4.27490000     -6.68758000     -3.01314000       6
P               4.32633000      7.33730000      0.05574760      15
H               4.72608000     -5.47533000      4.50034000       1
N              -0.42506100      8.09628000     -2.64818000       7
H               1.47633000      7.69865000     -3.45703000       1
I              -2.41994000      4.71801000     -6.77594000      53
P              -4.56191000      7.33730000      0.05574760      15
H               0.00637309      8.32978000      2.31761000       1
C               4.61334000     -6.68758000     -3.01314000       6
I              -6.88177000      5.24214000     -0.61246000      53
H              -3.61374000     -6.90859000     -3.85408000       1
H              -0.27611300      7.41429000      4.53962000       1
I               2.35514000     -8.39248000     -0.31290700      53
H              -7.56083000     -2.04764000      3.88085000       1
C               4.81368000     -6.74387000      2.82524000       6
H               0.09996650      7.46037000     -4.58403000       1
I              -6.19262000      0.79310800     -6.14352000      53
H               5.15392000     -6.77651000     -2.06798000       1
N              -4.76477000     -6.17452000      4.01557000       7
I               3.75269000      7.26466000      3.21244000      53
H               3.74836000     -7.35463000     -3.02301000       1
I               2.07117000      5.17403000      6.82794000      53
I              -2.05088000     -8.58762000      0.36426700      53
I              -3.84291000      7.32485000     -3.23443000      53
H               4.15676000     -7.48687000      2.36735000       1
H              -5.66736000     -5.73877000      3.73556000       1
P               0.05741070     -6.33173000      6.37163000      15
N               8.54794000     -0.94740700     -2.64818000       7
P               0.13166100     -6.33100000     -6.39368000      15
H              -8.51918000     -2.38073000      1.71253000       1
H               8.55934000      0.06758340     -2.88929000       1
H               8.86204000     -1.02479000     -1.66753000       1
H              -8.79711000     -0.71390500      2.31761000       1
H              -8.91445000     -1.02479000     -1.66753000       1
I              -6.26687000      0.79238100      6.62180000      53
H              -4.73148000     -7.48687000      2.36735000       1
H               3.87755000      2.12995000     -8.05754000       1
I               7.13232000      0.10378100      5.81016000      53
H               1.40166000     -2.04691000     -8.88447000       1
H               3.88806000     -6.91446000      4.70777000       1
N               0.37191900     -2.18451000     -8.95879000       7
C              -8.34762000     -1.72103000     -3.56046000       6
C               8.73592000     -1.77016000      2.45296000       6
P               8.83633000      2.88628000      0.00631150      15
H               8.97938000     -0.71390500      2.31761000       1
I               8.38894000      2.53998000     -3.25846000      53
C               0.46637100     -1.72175000      9.20485000       6
H               0.18152700     -3.19338000     -8.81771000       1
P              -8.94016000      2.88628000      0.00631150      15
H              -8.39679000     -2.77501000     -3.27746000       1
H              -0.24413900     -8.97610000     -2.88929000       1
I              -8.32744000      3.15274000      3.18758000      53
I              -5.13555000      7.26466000      3.21244000      53
I               5.04533000      7.32485000     -3.23443000      53
H              -5.13988000     -7.35463000     -3.02301000       1
H               5.27451000     -6.90859000     -3.85408000       1
H               1.48684000     -1.34576000      9.30829000       1
C              -9.04056000     -1.77016000      2.45296000       6
H              -0.41365900      9.11127000     -2.88929000       1
N              -8.59057000     -2.18524000      3.80653000       7
N              -9.22854000     -0.94740700     -2.64818000       7
H              -9.21714000      0.06758340     -2.88929000       1
H               9.25731000     -2.38073000      1.71253000       1
I              -6.65806000     -3.86893000     -5.93737000      53
H              -5.01069000      2.12995000     -8.05754000       1
H               5.74537000     -7.20920000      3.15516000       1
H              -5.00018000     -6.91446000      4.70777000       1
I              -2.22040000      9.49976000      0.36426700      53
I               6.47881000     -4.32640000      5.98937000      53
I              -0.57355200      2.53926000      9.50685000      53
H              -0.40315000      0.06685620      9.87603000       1
H               0.41720000     -2.77574000      9.48785000       1
H              -3.77275000      2.13437000      8.91123000       1
H              -4.17267000      3.56908000     -8.26498000       1
I               2.18562000      9.69489000     -0.31290700      53
H               8.69689000     -1.62939000      4.53962000       1
I               6.39405000      4.71728000      5.98937000      53
H              -8.70352000     -1.58332000     -4.58403000       1
I               7.20657000      0.10450900     -6.95515000      53
H               0.17589300     -9.75759000      2.31761000       1
N               4.11296000      2.86990000     -8.74974000       7
I               0.63504900      3.15347000     -9.57773000      53
