200
cutoff_factor=1.20000000 nneightol=1.20000000 Lattice="28.70337000       0.00000000       0.00000000       0.00000000      28.89187000       0.00000000       0.00000000       0.00000000      28.93733000" Properties=species:S:1:pos:R:3:Z:I:1
I               1.77624000      0.09621220     -0.70930600      53
P              -0.81198500      2.00982000     -0.74683700      15
H              -1.30524000     -1.77621000      1.18146000       1
I              -2.63091000     -0.70925200     -0.69502000      53
H              -0.01740630     -1.67868000      2.26111000       1
N              -0.67414200     -2.32624000      1.80696000       7
I              -0.65465900      1.82803000      2.49431000      53
H              -0.30044500     -1.95709000     -2.50110000       1
H              -0.13289800     -2.96433000      1.18088000       1
H               1.97056000      1.46569000      2.46764000       1
H              -0.31118100     -0.78080600     -3.69917000       1
N              -0.13137900     -1.78946000     -3.50805000       7
H               3.14745000      0.27464400      2.46756000       1
N               2.92791000      1.23466000      2.80433000       7
H               0.87498800     -1.98112000     -3.69973000       1
I              -0.77590400      1.76267000     -3.95061000      53
C              -1.46689000     -3.10896000      2.80073000       6
I               0.91893500     -4.30131000     -0.69574700      53
P               3.65928000     -2.51434000     -0.74682900      15
H              -2.03606000     -2.41024000      3.41649000       1
H               3.91675000      2.21182000      1.22327000       1
H               2.85395000      1.16179000     -3.49786000       1
I               1.02434000      4.65268000     -0.69574700      53
I               3.47825000     -2.35488000      2.49436000      53
H              -2.14166000     -3.77432000      2.25726000       1
H               2.88351000      1.19073000      3.84094000       1
C               3.92989000      2.22476000      2.31513000       6
H              -0.77554700     -3.68793000      3.41568000       1
I              -3.38674000      3.84339000     -0.69146000      53
H               3.24043000      2.80540000     -2.88970000       1
C              -1.00799000     -2.65533000     -4.34401000       6
H              -2.04930000     -2.42252000     -4.10960000       1
H              -4.03988000      1.93581000      2.68971000       1
C               3.62842000      1.92708000     -3.41072000       6
H              -4.45247000      1.52874000     -2.88940000       1
H               3.65276000      3.21273000      2.68977000       1
H               4.50192000      1.52874000     -2.88940000       1
H              -0.78742800     -3.69945000     -4.11026000       1
H              -5.03764000      2.21182000      1.22327000       1
I               3.41295000     -2.47553000     -3.95067000      53
P              -5.29511000     -2.51434000     -0.74682900      15
H               4.91451000      1.93581000      2.68971000       1
C              -5.02450000      2.22476000      2.31513000       6
H              -0.79793700     -2.44720000     -5.39557000       1
H              -2.03626000      5.17966000      2.25726000       1
P              -0.94120000      1.89416000      5.70853000      15
H              -0.02749060      5.98965000      1.18088000       1
I               1.62834000     -0.04937860      5.90305000      53
I              -3.49215000     -5.11059000     -0.69146000      53
H              -0.67014000      5.26606000      3.41568000       1
H              -5.80694000      0.27464400      2.46756000       1
I               6.32348000     -0.70925200     -0.69502000      53
I              -2.81072000     -0.74305600      5.76824000      53
I              -5.47614000     -2.35488000      2.49436000      53
C              -5.32597000      1.92708000     -3.41072000       6
C              -1.36148000      5.84502000      2.80073000       6
N               4.04265000      2.33605000     -4.78464000       7
H              -0.68202100      5.25453000     -4.11026000       1
H              -5.30163000      3.21273000      2.68977000       1
N              -6.02648000      1.23466000      2.80433000       7
I               5.56765000      3.84339000     -0.69146000      53
H               3.24607000      2.72538000     -5.33579000       1
N              -0.56873500      6.62774000      1.80696000       7
H              -5.71396000      2.80540000     -2.88970000       1
H              -4.17713000      3.06197000     -4.76540000       1
P              -0.91739200     -6.94416000     -0.74683700      15
H               4.42259000      1.53477000     -5.33553000       1
H              -6.10044000      1.16179000     -3.49786000       1
H              -4.53180000      1.53477000     -5.33553000       1
I              -7.17815000      0.09621220     -0.70930600      53
P               3.54140000     -2.64176000      5.70862000      15
I              -5.54144000     -2.47553000     -3.95067000      53
N              -4.91174000      2.33605000     -4.78464000       7
H               3.54735000     -5.74125000      2.68977000       1
H              -6.07089000      1.19073000      3.84094000       1
I               0.88238700     -4.47996000      5.76840000      53
I               0.98779400      4.47402000      5.76840000      53
H              -1.19983000      7.17777000      1.18146000       1
H               4.77726000      3.06197000     -4.76540000       1
H              -0.19503800      6.99689000     -2.50110000       1
P              -0.81755700      1.89904000     -7.17365000      15
I               0.99904000     -0.67229600     -7.38393000      53
H               3.13503000     -6.14859000     -2.88970000       1
P               3.76469000      6.43965000     -0.74682900      15
I              -3.49098000      3.74089000      5.49834000      53
I               5.46224000     -5.11059000     -0.69146000      53
H              -6.98383000      1.46569000      2.46764000       1
I              -0.76006600     -7.12595000      2.49431000      53
H               0.08800090      7.27530000      2.26111000       1
H              -1.93065000      6.54375000      3.41649000       1
C              -0.90258600      6.29866000     -4.34401000       6
H               3.81134000     -6.74216000      1.22327000       1
H              -1.34936000     -1.81541000      7.54648000       1
I               3.58365000      6.59910000      2.49436000      53
I              -3.47657000      0.06083580     -7.11387000      53
H               7.64915000     -1.77621000      1.18146000       1
H               0.98039500      6.97286000     -3.69973000       1
H              -1.94390000      6.53146000     -4.10960000       1
N              -0.02597140      7.16452000     -3.50805000       7
C               3.82448000     -6.72923000      2.31513000       6
H               6.91833000     -2.41024000      3.41649000       1
H               1.86515000     -7.48829000      2.46764000       1
H               6.81273000     -3.77432000      2.25726000       1
H              -0.17284100     -3.00603000      7.54674000       1
I              -0.88131100     -7.19132000     -3.95061000      53
H               0.18182700     -1.47883000      8.11687000       1
I               1.78471000      3.79774000     -7.11403000      53
H              -5.70832000      2.72538000     -5.33579000       1
P              -5.41299000     -2.64176000      5.70862000      15
P              -5.18971000      6.43965000     -0.74682900      15
H              -5.40704000     -5.74125000      2.68977000       1
I               3.51836000      6.47846000     -3.95067000      53
I              -3.59639000     -5.21309000      5.49834000      53
P               3.54882000     -2.51902000     -7.17374000      15
H               6.90509000     -2.42252000     -4.10960000       1
N              -0.55278000     -2.20474000      8.09763000       7
P               8.14241000      2.00982000     -0.74683700      15
I               6.14367000     -0.74305600      5.76824000      53
H              -0.69253000      6.50678000     -5.39557000       1
H               3.66643000      1.96598000      7.48670000       1
H              -5.14305000     -6.74216000      1.22327000       1
C               3.52301000     -7.02690000     -3.41072000       6
C               7.48750000     -3.10896000      2.80073000       6
H              -4.14529000     -7.01817000      2.68971000       1
I               5.46341000      3.74089000      5.49834000      53
I              -2.52551000      8.24473000     -0.69502000      53
N               2.82250000     -7.71932000      2.80433000       7
H              -4.28254000     -5.89201000     -4.76540000       1
I              -2.73062000      4.49142000     -6.97922000      53
I              -2.83603000     -4.46257000     -6.97922000      53
C              -5.12991000     -6.72923000      2.31513000       6
H               3.14066000     -6.22860000     -5.33579000       1
N               8.28025000     -2.32624000      1.80696000       7
I               8.29973000      1.82803000      2.49431000      53
I              -5.37074000      6.59910000      2.49436000      53
H               4.67185000     -5.89201000     -4.76540000       1
H               4.80910000     -7.01817000      2.68971000       1
H               6.91814000      5.17966000      2.25726000       1
I               1.67930000     -5.15624000     -7.11403000      53
H              -5.81937000     -6.14859000     -2.88970000       1
H               2.74854000     -7.79219000     -3.49786000       1
H              -0.20577400      8.17318000     -3.69917000       1
I               5.47782000      0.06083580     -7.11387000      53
I               1.67083000     -8.85777000     -0.70930600      53
N               3.93724000     -6.61793000     -4.78464000       7
H               2.77810000     -7.76325000      3.84094000       1
H               4.39651000     -7.42524000     -2.88940000       1
H              -8.07940000     -1.98112000     -3.69973000       1
P              -1.04661000     -7.05982000      5.70853000      15
I              -8.03546000     -4.30131000     -0.69574700      53
H              -4.55788000     -7.42524000     -2.88940000       1
I              -1.07707000      1.93766000      8.93160000      53
H               8.65395000     -1.95709000     -2.50110000       1
I              -7.93005000      4.65268000     -0.69574700      53
I               8.17849000      1.76267000     -3.95061000      53
P               3.64681000      6.31223000      5.70862000      15
I               1.88164000      9.05020000     -0.70930600      53
I               5.35800000     -5.21309000      5.49834000      53
H               2.41506000      1.99067000      8.77267000       1
P              -5.40557000     -2.51902000     -7.17374000      15
I              -5.43603000      6.47846000     -3.95067000      53
H               8.93699000     -1.67868000      2.26111000       1
H              -5.28796000      1.96598000      7.48670000       1
C               3.45637000      1.75786000      8.53826000       6
H               8.82149000     -2.96433000      1.18088000       1
H              -8.97180000     -1.67868000      2.26111000       1
I              -7.32605000     -0.04937860      5.90305000      53
H               8.64321000     -0.78080600     -3.69917000       1
C               7.94640000     -2.65533000     -4.34401000       6
C              -5.43138000     -7.02690000     -3.41072000       6
H               3.04205000     -8.67934000      2.46756000       1
H               3.67694000      0.71373700      8.77201000       1
N              -5.01715000     -6.61793000     -4.78464000       7
H               8.17884000     -3.68793000      3.41568000       1
H              -0.06743340      5.94796000      7.54674000       1
H              -9.08729000     -2.96433000      1.18088000       1
N               8.82301000     -1.78946000     -3.50805000       7
H              -1.58086000     -3.22246000     -9.04133000       1
H              -9.25484000     -1.95709000     -2.50110000       1
H               8.16696000     -3.69945000     -4.11026000       1
C              -0.96701100     -2.61372000      9.47155000       6
N              -9.08577000     -1.78946000     -3.50805000       7
C               7.59291000      5.84502000      2.80073000       6
P              -9.76638000      2.00982000     -0.74683700      15
H              -9.26557000     -0.78080600     -3.69917000       1
I               3.58306000     -2.77813000      8.93166000      53
P               8.01319000      1.89416000      5.70853000      15
P              -5.30758000      6.31223000      5.70862000      15
H               2.55937000      2.13056000     -9.46578000       1
H              -5.81373000     -6.22860000     -5.33579000       1
I              -2.73632000     -9.66324000     -0.69502000      53
N              -9.62853000     -2.32624000      1.80696000       7
H               8.15645000     -2.44720000     -5.39557000       1
H               3.25286000      9.22863000      2.46756000       1
I              -9.60905000      1.82803000      2.49431000      53
P              -0.92296400     -7.05494000     -7.17365000      15
H               4.31718000     -7.41921000     -5.33553000       1
H              -1.74148000     -3.37900000      9.38441000       1
H              -3.61504000      2.43207000      9.18254000       1
H               7.02374000      6.54375000      3.41649000       1
