200
cutoff_factor=1.20000000 nneightol=1.20000000 Lattice="29.18676000       0.00000000       0.00000000       0.00000000      28.38461000       0.00000000       0.00000000       0.00000000      29.46282000" Properties=species:S:1:pos:R:3:Z:I:1
P               1.06905000     -1.41031000     -0.02409340      15
I              -1.44809000      0.18137100      1.11167000      53
H              -2.17442000      0.02545920     -1.83063000       1
I               1.18284000      0.43530200     -2.64951000      53
H              -0.06716400      3.05290000     -0.61159500       1
I               2.95505000      0.84061800      1.58206000      53
H               1.90643000      3.05764000      0.78457200       1
C              -2.80608000      0.65668800     -2.45906000       6
I              -0.85539900     -3.47468000     -1.49713000      53
H              -2.17442000     -2.65169000      1.92116000       1
C               0.60136300      3.91682000     -0.61985100       6
H              -3.27529000      1.44385000     -1.86453000       1
H              -2.22079000      1.08810000     -3.27367000       1
N               1.35957000      3.93918000      0.66634200       7
H               1.31550000      3.83673000     -1.44061000       1
H               0.70546900      3.99694000      1.47728000       1
I               1.18283000     -3.29275000      2.57507000      53
H              -0.06723290     -0.51417000      4.38749000       1
H               1.90642000      0.80755700      3.93790000       1
P              -3.32173000      2.23083000      2.57404000      15
I               3.74272000     -2.84240000     -1.04596000      53
H               0.02699050      4.84113000     -0.69896400       1
N              -3.87753000     -0.19433200     -3.05103000       7
C              -2.80610000     -3.04061000      2.72247000       6
H               0.70550900      1.76811000      4.60090000       1
H              -4.45200000     -0.65798400     -2.31688000       1
N               1.35958000      0.98244600      4.80998000       7
H              -3.47671000     -0.96617200     -3.62195000       1
H              -3.27531000     -2.22236000      3.27343000       1
H               4.57323000     -0.65798400     -2.31688000       1
H               2.00027000      4.74260000      0.70525300       1
C               0.60134700     -0.24108500      5.20711000       6
I              -0.62248600      3.76177000      3.66647000      53
I              -3.35494000      4.20980000      0.08441200      53
H              -2.22082000     -3.67060000      3.39540000       1
H              -0.03810430     -3.59720000     -4.30712000       1
H               1.31546000     -1.04331000      5.39823000       1
H               1.93520000     -2.30142000     -4.85701000       1
H              -4.45201000     -3.33377000      1.43303000       1
P               1.15139000      2.40166000     -5.16227000      15
H              -4.49561000      0.34784800     -3.68527000       1
I              -1.42612000      3.90622000     -4.08871000      53
H               4.57322000     -3.33377000      1.43303000       1
H               4.52962000      0.34784800     -3.68527000       1
N              -3.87755000     -3.87720000      2.11027000       7
N               5.14770000     -0.19433200     -3.05103000       7
H              -3.47673000     -4.66813000      1.56611000       1
H               2.00033000      1.28047000      5.55706000       1
I              -5.28251000     -2.84240000     -1.04596000      53
H               0.02702710     -0.01530400      6.10694000       1
H               0.64037700     -1.81378000     -5.81316000       1
H              -0.03816220     -6.17175000     -0.69896400       1
H               5.74994000      1.44385000     -1.86453000       1
I              -3.35497000      0.52020200      5.25515000      53
N               1.29445000     -2.59945000     -5.60408000       7
I              -6.07017000      0.84061800      1.58206000      53
C               0.53621500     -3.82298000     -5.20696000       6
I               3.05303000      4.46886000     -3.68724000      53
H               1.93512000     -6.27028000      0.70525300       1
P               5.70349000      2.23083000      2.57404000      15
P              -3.46179000     -5.05501000     -2.62475000      15
H               5.54852000     -0.96617200     -3.62195000       1
C               6.21915000      0.65668800     -2.45906000       6
N               5.14768000     -3.87720000      2.11027000       7
I              -0.68761700      0.17987900     -6.74760000      53
H              -4.49564000     -4.30059000      2.82926000       1
H               4.52959000     -4.30059000      2.82926000       1
I              -3.42010000     -3.06169000     -5.15891000      53
H               1.25033000     -4.62520000     -5.01584000       1
H               5.74992000     -2.22236000      3.27343000       1
I               5.67029000      4.20980000      0.08441200      53
H               6.85081000      0.02545920     -1.83063000       1
C               0.53621100     -7.09606000     -0.61985100       6
I               3.83338000      4.41722000      4.13413000      53
H               0.64031600     -7.01594000      1.47728000       1
N               1.29441000     -7.07369000      0.66634200       7
H               1.84129000     -2.77433000     -6.47617000       1
H              -0.13236400     -4.09606000     -6.02658000       1
P              -3.39664000      5.95787000     -2.62475000      15
P               1.15137000     -5.02933000      5.25179000      15
I               3.76825000      0.83532600     -6.27993000      53
H              -3.41158000      6.34475000      1.56611000       1
I              -1.42614000     -3.52477000      6.32535000      53
H               5.54850000     -4.66813000      1.56611000       1
H               1.25035000     -7.17615000     -1.44061000       1
C               6.21913000     -3.04061000      2.72247000       6
H               6.85081000     -2.65169000      1.92116000       1
I              -3.42009000     -6.80307000      0.08441200      53
H               6.80444000      1.08810000     -3.27367000       1
I               7.57713000      0.18137100      1.11167000      53
I              -0.79024600      7.53819000     -1.49713000      53
I               5.67026000      0.52020200      5.25515000      53
H              -7.11880000      3.05764000      0.78457200       1
I               3.05301000     -2.96213000      6.72683000      53
P               5.56344000     -5.05501000     -2.62475000      15
I              -5.19185000      4.41722000      4.13413000      53
H              -0.13231700     -7.95998000     -0.61159500       1
H              -3.41158000      2.61572000      6.79212000       1
P               1.21652000      5.98355000      5.25179000      15
P              -7.95617000     -1.41031000     -0.02409340      15
I               2.98788000     -6.54402000     -3.68724000      53
I              -0.68763800     -7.25111000      3.66647000      53
H              -7.11881000      0.80755700      3.93790000       1
H               1.84128000     -7.95523000      0.78457200       1
I               5.60512000     -3.06169000     -5.15891000      53
H               1.31548000      6.38768000     -5.01584000       1
I              -5.25698000      0.83532600     -6.27993000      53
I               1.24798000      7.72013000      2.57507000      53
H              -2.22080000      3.76038000     -7.01866000       1
I              -7.84238000      0.43530200     -2.64951000      53
I              -5.97220000      4.46886000     -3.68724000      53
I              -1.49127000     -7.10666000     -4.08871000      53
N              -3.81240000      7.13568000      2.11027000       7
H              -2.15567000      7.34227000      3.39540000       1
H               6.80441000     -3.67060000      3.39540000       1
H              -7.02496000      4.74260000      0.70525300       1
H              -4.43049000      6.71229000      2.82926000       1
H               0.02704840      7.41568000     -4.30712000       1
P               5.62859000      5.95787000     -2.62475000      15
H               4.59474000      6.71229000      2.82926000       1
H               5.61365000      6.34475000      1.56611000       1
P              -3.39666000     -1.47311000      7.78931000      15
N              -7.66566000      3.93918000      0.66634200       7
P              -3.38687000     -1.35106000     -7.84002000      15
I               3.76822000     -6.59566000      4.13413000      53
H              -7.70973000      3.83673000     -1.44061000       1
H              -2.15566000      4.66999000      7.14040000       1
I               5.60514000     -6.80307000      0.08441200      53
I               1.24798000      4.01719000      7.76455000      53
H              -2.10927000      8.36119000      1.92116000       1
C              -2.74094000      7.97226000      2.72247000       6
I              -7.84240000     -3.29275000      2.57507000      53
H              -7.09003000     -2.30142000     -4.85701000       1
C               0.60136800      7.18990000     -5.20696000       6
I               1.18285000      4.13824000     -7.83900000      53
I              -0.79026700      0.10720700      8.91694000      53
N              -3.81240000      3.38756000      7.36303000       7
H              -4.38686000      7.67911000      1.43303000       1
H              -4.43048000      3.92974000      6.72879000       1
H               0.64033700      0.41504500     -8.93679000       1
I               8.16983000     -3.47468000     -1.49713000      53
H               4.59475000      3.92974000      6.72879000       1
H              -7.02490000      1.28047000      5.55706000       1
I               3.80787000      8.17047000     -1.04596000      53
H               4.63837000      7.67911000      1.43303000       1
N               5.21283000      7.13568000      2.11027000       7
N              -7.66565000      0.98244600      4.80998000       7
H              -0.06721160      6.91682000     -6.02658000       1
H               5.61365000      2.61572000      6.79212000       1
C              -2.80607000      4.39037000     -7.69159000       6
C              -8.42387000      3.91682000     -0.61985100       6
H              -8.31976000      3.99694000      1.47728000       1
H              -4.49562000      3.13040000     -7.58480000       1
H               4.52961000      3.13040000     -7.58480000       1
I              -5.25700000     -6.59566000      4.13413000      53
C              -2.74095000      4.23858000      7.95501000       6
H              -3.27529000      5.20862000     -7.14063000       1
H              -7.70977000     -1.04331000      5.39823000       1
I              -5.97222000     -2.96213000      6.72683000      53
I               7.59911000      3.90622000     -4.08871000      53
H               8.95807000      3.05290000     -0.61159500       1
H              -7.09011000     -6.27028000      0.70525300       1
H              -2.10929000      3.60735000      8.58344000       1
H              -9.09239000      3.05290000     -0.61159500       1
N               5.21283000      3.38756000      7.36303000       7
I              -6.03735000     -6.54402000     -3.68724000      53
H              -4.38687000      2.92391000      8.09719000       1
P               1.13421000      9.60256000     -0.02409340      15
H              -8.31972000      1.76811000      4.60090000       1
I               2.88992000     -2.74127000     -8.83201000      53
P              -7.87384000      2.40166000     -5.16227000      15
P               5.62857000     -1.47311000      7.78931000      15
I              -5.21736000      8.17047000     -1.04596000      53
P               5.63836000     -1.35106000     -7.84002000      15
H               1.31548000     -3.59426000      8.97346000       1
P              -3.38689000     -8.78205000      2.57404000      15
H               4.63836000      2.92391000      8.09719000       1
H              -3.34044000     -5.80425000     -7.14063000       1
H              -2.22081000     -6.34288000      7.14040000       1
H               1.84130000     -0.52424800     -9.62949000       1
N              -3.87753000      3.55379000     -8.30379000       7
N               1.29443000      0.35729300     -9.74772000       7
N              -7.73078000     -2.59945000     -5.60408000       7
I              -1.36099000      7.48811000      6.32535000      53
H              -3.47671000      2.76286000     -8.84796000       1
C              -8.42388000     -0.24108500      5.20711000       6
I               8.40274000      3.76177000      3.66647000      53
H              -3.21015000      8.79052000      3.27343000       1
H               1.93514000      1.16071000     -9.70881000       1
H              -2.17440000      4.77930000     -8.49290000       1
H               8.95800000     -0.51417000      4.38749000       1
I              -1.51323000     -3.40052000     -9.30240000      53
H               0.02696920     -2.58985000      9.71510000       1
I              -3.35495000      7.95119000     -5.15891000      53
H              -7.18394000     -2.77433000     -6.47617000       1
P               1.08624000     -8.61122000     -5.16227000      15
H              -9.09246000     -0.51417000      4.38749000       1
I               3.80785000      0.73948700      9.36811000      53
H               2.00035000      8.71146000     -4.85701000       1
P              10.09430000     -1.41031000     -0.02409340      15
