200
cutoff_factor=1.20000000 nneightol=1.20000000 Lattice="29.12139000       0.00000000       0.00000000       0.00000000      29.38411000       0.00000000       0.00000000       0.00000000      28.60788000" Properties=species:S:1:pos:R:3:Z:I:1
I              -1.47443000     -1.20873000      0.86309400      53
H               1.07977000     -0.80958300     -1.76843000       1
H               1.78288000      1.48622000      1.20056000       1
H              -0.31850000     -1.24939000     -2.62005000       1
I               2.90371000     -0.60426800      0.33047300      53
N               0.70839500     -1.39594000     -2.54170000       7
I              -0.60182800      2.51615000     -1.54525000      53
H               0.99496500      2.80849000      0.55990600       1
N               1.53293000      2.48154000      1.39065000       7
H              -0.21117600      2.05835000      2.50172000       1
H               0.88831700     -2.38362000     -2.27203000       1
P              -3.27821000      0.90125100     -0.62597400      15
P               1.04370000     -2.77092000      2.01333000      15
C               0.72780900      2.59870000      2.64152000       6
H               2.43199000      2.98602000      1.47258000       1
C               1.38471000     -1.06856000     -3.83197000       6
H               1.16343000     -0.02930730     -4.08519000       1
H               1.30051000      2.16146000      3.46174000       1
I              -2.92071000     -0.89339200     -3.30135000      53
H              -2.29838000     -1.22271000      3.71632000       1
H               2.46017000     -1.21147000     -3.70441000       1
H               0.53780200      3.65594000      2.83075000       1
I               1.03906000     -0.88175600      4.60167000      53
I               1.34036000     -4.56456000     -0.69377700      53
H              -3.15800000     -3.44956000     -1.22008000       1
H              -1.95753000     -4.57234000     -0.49872300       1
H               1.00069000     -1.74086000     -4.60221000       1
I              -3.64980000      2.89942000      1.87819000      53
H              -3.47043000      0.12270800      3.92098000       1
C              -2.87274000     -0.63409200      4.43405000       6
I               3.82131000      2.98028000     -2.26531000      53
C              -2.93320000     -4.49196000     -0.98331100       6
H              -2.20595000     -0.16939700      5.16247000       1
P               5.62737000      0.90125100     -0.62597400      15
P               1.22680000      4.53046000     -3.30940000      15
H              -3.09054000      1.25325000     -4.83524000       1
I              -0.83333500     -4.91274000      3.36711000      53
I              -6.00187000     -0.60426800      0.33047300      53
H              -3.99920000     -4.45635000      0.84860500       1
H              -2.96342000     -5.10482000     -1.88693000       1
I               5.25579000      2.89942000      1.87819000      53
I              -5.08427000      2.98028000     -2.26531000      53
H              -3.82034000      5.05118000      0.21909900       1
H               3.98090000     -4.94193000     -0.45473000       1
N              -3.97260000     -4.99743000     -0.03972410       7
I               3.67506000     -4.14770000      3.20428000      53
N              -3.79164000     -1.55301000      5.16194000       7
I               1.22124000      2.66525000     -5.90644000      53
H              -2.02376000      3.37761000     -5.34564000       1
I               1.31747000      6.47497000     -0.69377700      53
H              -4.42786000     -2.05639000      4.50881000       1
H               4.47772000     -2.05639000      4.50881000       1
H               4.90638000     -4.45635000      0.84860500       1
H               5.43516000      0.12270800      3.92098000       1
H              -4.17911000      2.49419000     -4.63057000       1
I              -1.47189000      2.54238000      6.05698000      53
N              -3.60945000      1.99399000     -5.34617000       7
I              -1.26681000     -4.95014000     -4.45113000      53
H              -1.98042000      6.46719000     -0.49872300       1
H               5.74758000     -3.44956000     -1.22008000       1
I               5.98488000     -0.89339200     -3.30135000      53
H              -2.98631000      5.93471000     -1.88693000       1
H              -3.27273000     -2.29375000      5.67287000       1
H              -4.92468000     -4.94193000     -0.45473000       1
N               4.93298000     -4.99743000     -0.03972410       7
I              -0.85622500      6.12679000      3.36711000      53
H               4.72648000      2.49419000     -4.63057000       1
H              -3.79745000     -5.98835000      0.21909900       1
I               3.16020000     -4.32036000     -4.72256000      53
H               5.08524000      5.05118000      0.21909900       1
I               2.95513000      3.17217000      5.78555000      53
N              -3.99549000      6.04210000     -0.03972410       7
C              -2.95609000      6.54758000     -0.98331100       6
C              -2.69056000      2.91291000     -6.07406000       6
H              -6.47359000      2.98602000      1.47258000       1
H               3.95801000      6.09760000     -0.45473000       1
P              -3.18218000     -2.87788000     -5.88851000      15
I              -0.65114900     -1.36574000     -7.14101000      53
P               1.04461000      0.98346100      7.19871000      15
P              -3.38725000      4.61464000      4.61961000      15
H              -7.12270000      1.48622000      1.20056000       1
H              -4.36129000     -1.05281000      5.87754000       1
I              -5.23052000     -4.14770000      3.20428000      53
P               1.24969000     -6.50907000     -3.30940000      15
H               0.98124300     -3.57631000      6.42293000       1
N               5.11395000     -1.55301000      5.16194000       7
H              -2.11620000      2.32429000     -6.79179000       1
H              -4.24568000      1.49061000     -5.99930000       1
H               4.54429000     -1.05281000      5.87754000       1
C               6.03284000     -0.63409200      4.43405000       6
H              -6.44541000     -1.21147000     -3.70441000       1
C               5.97238000     -4.49196000     -0.98331100       6
I               7.43115000     -1.20873000      0.86309400      53
I              -1.28970000      6.08939000     -4.45113000      53
H               5.81504000      1.25325000     -4.83524000       1
H               6.60720000     -1.22271000      3.71632000       1
H               4.65991000      1.49061000     -5.99930000       1
H              -4.02209000      6.58319000      0.84860500       1
N               5.29613000      1.99399000     -5.34617000       7
N               4.91009000      6.04210000     -0.03972410       7
H              -4.94757000      6.09760000     -0.45473000       1
H               5.10813000     -5.98835000      0.21909900       1
N              -7.37266000      2.48154000      1.39065000       7
H               0.56069200     -7.38359000      2.83075000       1
H               0.81850000     -5.28787000      5.90590000       1
H               5.94216000     -5.10482000     -1.88693000       1
H              -7.82581000     -0.80958300     -1.76843000       1
C               1.20252000     -4.61556000      6.67614000       6
H              -3.28824000      3.66971000     -6.58714000       1
H               4.88349000      6.58319000      0.84860500       1
I               3.85725000     -0.60069600     -7.30383000      53
H               0.79561000      5.75166000      5.90590000       1
H               1.01785000     -8.23104000      0.55990600       1
H               5.63285000     -2.29375000      5.67287000       1
H              -3.18089000      7.58997000     -1.22008000       1
H               6.94805000     -4.57234000     -0.49872300       1
H              -7.91062000      2.80849000      0.55990600       1
I               3.65217000      6.89183000      3.20428000      53
H               6.69963000     -0.16939700      5.16247000       1
C              -7.52088000     -1.06856000     -3.83197000       6
H               2.45488000     -8.05351000      1.47258000       1
P               5.51833000      4.61464000      4.61961000      15
P               1.02081000      8.26861000      2.01333000      15
P              -7.86188000     -2.77092000      2.01333000      15
H               5.91927000      5.93471000     -1.88693000       1
P              -3.36436000     -6.42489000      4.61961000      15
I              -5.74538000     -4.32036000     -4.72256000      53
H               2.27798000     -4.75847000      6.80370000       1
H               0.74287800     -3.83659000     -7.67736000       1
P               1.22588000      0.77608400     -8.49478000      15
H              -7.60507000      2.16146000      3.46174000       1
H              -8.01727000     -2.38362000     -2.27203000       1
I              -0.57893700     -8.52338000     -1.54525000      53
N              -8.19719000     -1.39594000     -2.54170000       7
P               5.72340000     -2.87788000     -5.88851000      15
H              -7.74215000     -0.02930730     -4.08519000       1
I               3.13731000      6.71917000     -4.72256000      53
N               1.55582000     -8.55799000      1.39065000       7
I               8.30375000      2.51615000     -1.54525000      53
I              -7.56522000     -4.56456000     -0.69377700      53
C               0.75069900     -8.44083000      2.64152000       6
I              -5.95046000      3.17217000      5.78555000      53
I              -5.04834000     -0.60069600     -7.30383000      53
C               5.94949000      6.54758000     -0.98331100       6
H               1.50559000     -5.33107000     -7.04637000       1
C              -8.17777000      2.59870000      2.64152000       6
H               0.86542700      8.65591000     -2.27203000       1
I              -3.10289000     -4.44040000      7.20677000      53
I               3.63912000     -0.56672000      8.24280000      53
I              -0.78401400     -1.03085000      8.96286000      53
H               8.58708000     -1.24939000     -2.62005000       1
I              -3.62691000     -8.14011000      1.87819000      53
I              -7.86652000     -0.88175600      4.60167000      53
C               6.21503000      2.91291000     -6.07406000       6
H               1.48269000      5.70846000     -7.04637000       1
I               3.84420000     -8.05925000     -2.26531000      53
I              -5.25341000      6.89183000      3.20428000      53
H              -0.50068600     -4.79639000      7.88807000       1
H               8.69441000      2.05835000      2.50172000       1
H              -7.90490000     -1.74086000     -4.60221000       1
C               0.93288500     -4.89382000     -7.86659000       6
H              -0.18828600     -8.98118000      2.50172000       1
C               1.17963000      6.42397000      6.67614000       6
H               6.88182000      3.37761000     -5.34564000       1
N               0.52620900     -4.94294000      7.96641000       7
H               5.61734000      3.66971000     -6.58714000       1
H               6.92516000      6.46719000     -0.49872300       1
H              -3.16850000      2.38771000      8.62118000       1
P              -7.67878000      4.53046000     -3.30940000      15
H               2.25509000      6.28106000      6.80370000       1
H              -2.00087000     -7.66193000     -5.34564000       1
H              -8.36778000      3.65594000      2.83075000       1
H               5.72469000      7.58997000     -1.22008000       1
H               1.32340000     -8.87807000      3.46174000       1
P               5.54122000     -6.42489000      4.61961000      15
H              -9.22408000     -1.24939000     -2.62005000       1
H              -9.11676000      2.05835000      2.50172000       1
H              -0.00610005     -5.43418000     -8.00640000       1
H               0.68324100      5.10891000      8.23608000       1
H              -0.02899020      5.60535000     -8.00640000       1
I              -5.06138000     -8.05925000     -2.26531000      53
H               1.80577000     -9.55331000      1.20056000       1
I              -5.26646000     -0.56672000      8.24280000      53
H               0.89758300     -4.35659000      8.73969000       1
H               6.78939000      2.32429000     -6.79179000       1
I               5.27868000     -8.14011000      1.87819000      53
H               0.95835300      7.46322000      6.42293000       1
I               7.43370000      2.54238000      6.05698000      53
I              -9.50741000      2.51615000     -1.54525000      53
I              -1.49732000      9.83080000      0.86309400      53
N               0.68550500      9.64360000     -2.54170000       7
I              -7.58811000      6.47497000     -0.69377700      53
I              -1.29224000      2.33827000     -9.64502000      53
C               0.90999500      6.14571000     -7.86659000       6
I               8.07225000     -4.91274000      3.36711000      53
I              -5.76827000      6.71917000     -4.72256000      53
N               9.61398000     -1.39594000     -2.54170000       7
N               0.50331900      6.09659000      7.96641000       7
I              -7.68434000      2.66525000     -5.90644000      53
H              -0.52357600      6.24314000      7.88807000       1
