200
cutoff_factor=1.20000000 nneightol=1.20000000 Lattice="29.41851000       0.00000000       0.00000000       0.00000000      28.99015000       0.00000000       0.00000000       0.00000000      28.67900000" Properties=species:S:1:pos:R:3:Z:I:1
I              -0.82832900     -0.76438500      0.59947200      53
H               0.65611500     -1.64420000     -1.33282000       1
P               0.81065700      1.96058000      0.71363800      15
N               1.29004000     -2.28650000     -1.85510000       7
I               1.09327000      2.07272000     -2.45547000      53
H               2.11587000     -1.76793000     -2.19317000       1
H               1.62672000     -2.97704000     -1.14875000       1
I               3.60699000      0.25759500      0.68138700      53
H               1.31959000     -1.28538000      3.24993000       1
I              -1.90997000      3.69288000      0.71771500      53
H              -2.31656000      1.97573000     -2.94456000       1
C               0.57355800     -2.97015000     -2.97256000       6
H               0.26096100     -2.21483000     -3.69440000       1
H              -0.29456500     -3.49050000     -2.56152000       1
P              -3.54571000     -2.41091000      0.70874300      15
H              -0.58187200     -2.76936000      3.53274000       1
I               1.14428000      2.03610000      3.88982000      53
H              -3.57956000      0.70437700     -2.83883000       1
C               1.20916000     -1.88131000      4.15880000       6
H              -3.90199000      2.43795000     -1.17428000       1
H               0.79961100     -3.64366000      3.10244000       1
C              -3.37612000      1.74933000     -3.08378000       6
N               0.36066400     -3.06875000      3.84501000       7
H               3.70126000      2.42014000     -2.26189000       1
I               2.58694000     -4.21992000      0.84513700      53
H               0.71467200     -1.29926000      4.93954000       1
H               1.25912000     -3.68142000     -3.43729000       1
I              -3.79363000     -2.68742000     -2.45827000      53
H              -3.74684000      2.64346000      2.57742000       1
I              -5.28277000      0.25759500      0.68138700      53
N              -4.17021000      2.61526000     -2.16152000       7
H              -2.34061000      2.05497000      4.46715000       1
I               2.53511000      4.76417000      0.84513700      53
H              -3.54135000      0.76921200      4.11141000       1
H               2.18337000     -2.23394000      4.50500000       1
I              -1.85815000     -5.29120000      0.71771500      53
H               4.98778000      2.43795000     -1.17428000       1
I              -1.13672000     -0.53201600     -5.56597000      53
H               3.75304000      2.49867000      3.52619000       1
I              -3.37669000     -2.63947000      3.88234000      53
N               4.71955000      2.61526000     -2.16152000       7
H              -3.68082000      1.96706000     -4.11001000       1
C              -3.40090000      1.79194000      4.46868000       6
H              -4.00780000      3.62349000     -2.36050000       1
P               5.34406000     -2.41091000      0.70874300      15
H               0.21678000     -3.65130000      4.69747000       1
P               0.84386400      1.93625000     -5.67422000      15
H               5.31020000      0.70437700     -2.83883000       1
H              -0.34639100      5.49359000     -2.56152000       1
N              -4.11965000      2.71828000      3.54504000       7
H              -5.18851000      2.42014000     -2.26189000       1
H               0.74778500      5.34042000      3.10244000       1
I               5.09613000     -2.68742000     -2.45827000      53
H               1.57490000      6.00704000     -1.14875000       1
H               5.14292000      2.64346000      2.57742000       1
H               1.20730000      5.30266000     -3.43729000       1
H               4.88197000      3.62349000     -2.36050000       1
N               4.77011000      2.71828000      3.54504000       7
C               5.51364000      1.74933000     -3.08378000       6
H              -4.00846000      3.70747000      3.84470000       1
I               3.35262000     -0.04383930     -5.81295000      53
H              -5.13673000      2.49867000      3.52619000       1
C               0.52173200      6.01394000     -2.97256000       6
H               5.34842000      0.76921200      4.11141000       1
H               5.20895000      1.96706000     -4.11001000       1
H              -3.82036000      1.90617000      5.47073000       1
N               1.23821000      6.69758000     -1.85510000       7
N               0.30883800      5.91534000      3.84501000       7
H              -3.95597000     -5.36059000     -2.36050000       1
I              -1.60077000      3.97661000     -5.64706000      53
H               0.16495400      5.33279000      4.69747000       1
P               0.86248300     -7.02350000      0.71363800      15
I              -1.34500000     -0.03726050      6.98754000      53
H              -0.63369800      6.21473000      3.53274000       1
P              -3.59352000     -2.55575000     -5.68616000      15
H               4.88130000      3.70747000      3.84470000       1
I               5.51307000     -2.63947000      3.88234000      53
C               5.48886000      1.79194000      4.46868000       6
H              -6.77389000     -1.76793000     -2.19317000       1
I               1.14510000     -6.91137000     -2.45547000      53
H               6.57321000      1.97573000     -2.94456000       1
P               1.07232000      1.98644000      7.13508000      15
H               0.60428900      7.33988000     -1.33282000       1
P              -3.59754000      6.57317000      0.70874300      15
I              -6.30283000     -4.21992000      0.84513700      53
H              -3.95663000     -5.27661000      3.84470000       1
H               4.93380000     -5.36059000     -2.36050000       1
H              -3.85016000     -6.54614000     -1.17428000       1
H               5.06941000      1.90617000      5.47073000       1
I              -1.54894000     -5.00748000     -5.64706000      53
H               0.20913500      6.76926000     -3.69440000       1
I              -3.84546000      6.29667000     -2.45827000      53
H              -3.69502000     -6.34062000      2.57742000       1
H               0.40356300     -2.63602000     -7.35052000       1
H               2.06405000      7.21616000     -2.19317000       1
I               3.11690000     -0.46528900      7.17419000      53
I               2.82710000      4.40463000     -5.83370000      53
N              -4.11839000     -6.36883000     -2.16152000       7
H               3.75308000     -6.56394000     -2.26189000       1
I               6.97979000      3.69288000      0.71771500      53
H              -2.26473000     -7.00836000     -2.94456000       1
H              -7.26304000     -2.97704000     -1.14875000       1
I               2.87892000     -4.57945000     -5.83370000      53
I              -6.35465000      4.76417000      0.84513700      53
I              -5.53715000     -0.04383930     -5.81295000      53
I               1.19611000     -6.94799000      3.88982000      53
I               8.06144000     -0.76438500      0.59947200      53
N              -7.59973000     -2.28650000     -1.85510000       7
P               5.29624000     -2.55575000     -5.68616000      15
H               4.93313000     -5.27661000      3.84470000       1
H               6.54915000      2.05497000      4.46715000       1
I              -3.42852000      6.34461000      3.88234000      53
N               4.77138000     -6.36883000     -2.16152000       7
N              -4.06783000     -6.26581000      3.54504000       7
P              -3.32823000     -2.50565000      7.14703000      15
I              -0.88015500      8.21970000      0.59947200      53
H               3.80486000     -6.48541000      3.52619000       1
C               1.15733000      7.10278000      4.15880000       6
H              -7.57018000     -1.28538000      3.24993000       1
P              -8.07911000      1.96058000      0.71363800      15
H               5.03960000     -6.54614000     -1.17428000       1
I              -0.81947500     -4.48573000      7.00829000      53
I              -0.87130100      4.49835000      7.00829000      53
H              -6.70640000     -2.23394000      4.50500000       1
H               2.13154000      6.75015000      4.50500000       1
I              -7.79650000      2.07272000     -2.45547000      53
I               5.04431000      6.29667000     -2.45827000      53
H               1.26776000      7.69870000      3.24993000       1
P               5.29223000      6.57317000      0.70874300      15
H              -8.23365000     -1.64420000     -1.33282000       1
C              -3.32430000     -7.23476000     -3.08378000       6
H              -2.28879000     -6.92911000      4.46715000       1
H               5.19475000     -6.34062000      2.57742000       1
H              -5.13668000     -6.56394000     -2.26189000       1
N               4.82194000     -6.26581000      3.54504000       7
I               7.03162000     -5.29120000      0.71771500      53
C               0.82301800     -2.75025000     -8.35257000       6
I              -7.74548000      2.03610000      3.88982000      53
H              -3.62899000     -7.01702000     -4.11001000       1
H               1.88331000     -2.48722000     -8.35410000       1
C              -7.68061000     -1.88131000      4.15880000       6
H              -5.08490000     -6.48541000      3.52619000       1
H              -2.53430000      2.20796000     -8.31624000       1
I               3.52912000      4.01018000      7.25527000      53
H               0.21546000     -0.83471600     -8.97654000       1
P               0.89569000     -7.04784000     -5.67422000      15
C              -3.34908000     -7.19214000      4.46868000       6
H               1.03686000     -2.47483000      8.71123000       1
H              -7.63064000     -3.68142000     -3.43729000       1
I               0.79540000      1.80242000     -8.93890000      53
H               0.66284600      7.68483000      4.93954000       1
I              -5.77286000     -0.46528900      7.17419000      53
I               5.46125000      6.34461000      3.88234000      53
H               4.38887000      0.79059600     -8.12377000       1
C              -8.31621000     -2.97015000     -2.97256000       6
H              -4.50089000      0.79059600     -8.12377000       1
P              -3.64535000      6.42833000     -5.68616000      15
H              -4.00300000      3.14264000     -7.88170000       1
P               5.56153000     -2.50565000      7.14703000      15
H              -8.09015000     -3.64366000      3.10244000       1
H              -3.52774000     -8.27971000     -2.83883000       1
H               8.30789000     -2.76936000      3.53274000       1
N               0.10426900     -1.82392000     -9.27621000       7
I               3.65882000     -8.72649000      0.68138700      53
I              -6.06267000      4.40463000     -5.83370000      53
I               3.58095000     -4.97391000      7.25527000      53
H               0.68257100     -3.77298000     -8.70983000       1
H              -7.31487000      6.00704000     -1.14875000       1
I              -6.01084000     -4.57945000     -5.83370000      53
I               7.75304000     -0.53201600     -5.56597000      53
H              -0.91280700     -2.04352000     -9.29505000       1
H               8.59520000     -3.49050000     -2.56152000       1
C               5.56547000     -7.23476000     -3.08378000       6
H              -8.17509000     -1.29926000      4.93954000       1
H              -8.62880000     -2.21483000     -3.69440000       1
H               5.26078000     -7.01702000     -4.11001000       1
C              -3.50852000      2.56059000     -8.66244000       6
H              -3.76853000     -7.07791000      5.47073000       1
H               0.35173700      6.34807000     -7.35052000       1
I              -9.71809000     -0.76438500      0.59947200      53
H               9.54588000     -1.64420000     -1.33282000       1
H               4.88677000      3.14264000     -7.88170000       1
I              -0.77650300     -9.74847000      0.59947200      53
H              -3.48952000     -8.21487000      4.11141000       1
N              -8.52910000     -3.06875000      3.84501000       7
I              -5.36064000      4.01018000      7.25527000      53
H              -2.96480000      0.86076600      9.38395000       1
P               9.70042000      1.96058000      0.71363800      15
I              -3.52156000     -2.50609000     -8.93142000      53
I               3.55517000      9.24168000      0.68138700      53
H              -7.68247000      5.30266000     -3.43729000       1
P              -8.04590000      1.93625000     -5.67422000      15
I               7.28900000      3.97661000     -5.64706000      53
P               1.12415000     -6.99765000      7.13508000      15
P               5.24442000      6.42833000     -5.68616000      15
N              -4.35701000      1.37314000     -8.97623000       7
H               6.62504000     -7.00836000     -2.94456000       1
H               3.59022000      1.67254000     -9.28851000       1
H               9.15073000     -2.21483000     -3.69440000       1
C               5.54069000     -7.19214000      4.46868000       6
