200
cutoff_factor=1.20000000 nneightol=1.20000000 Lattice="28.72017000       0.00000000       0.00000000       0.00000000      29.01889000       0.00000000       0.00000000       0.00000000      29.27945000" Properties=species:S:1:pos:R:3:Z:I:1
I              -1.19335000     -0.02454520      1.39518000      53
H               2.09439000      0.83103800     -1.49201000       1
H               2.19224000     -0.96155100     -1.52159000       1
H               1.17825000     -0.24883600      2.58166000       1
H               0.55109700     -0.13421100     -3.08979000       1
C               2.38325000     -0.04275890     -2.08042000       6
P              -1.19182000      3.14366000      0.80247300      15
P              -1.17314000     -3.17061000      0.78912600      15
H               2.02448000      1.17715000      2.65423000       1
N               2.01536000      0.19933300      3.00661000       7
N               1.55937000     -0.06773060     -3.32487000       7
I              -1.16755000      2.60312000     -2.33573000      53
I              -1.18825000     -2.62418000     -2.37384000      53
H              -2.99131000      0.01897340     -2.36460000       1
I               2.04099000     -3.12761000      0.80336400      53
I               2.03461000      3.10885000      0.89516200      53
H               2.87410000     -0.25125100      2.63042000       1
H               3.43608000      0.01897340     -2.36460000       1
H               1.70104000      0.79605800     -3.88468000       1
H               1.79356000     -0.89531000     -3.91006000       1
H              -3.55329000     -0.25125100      2.63042000       1
C              -4.04413000     -0.04275890     -2.08042000       6
H              -4.23514000     -0.96155100     -1.52159000       1
H              -4.33300000      0.83103800     -1.49201000       1
C               1.96568000      0.14611000      4.49488000       6
H               1.05578000      0.65076600      4.82606000       1
H               1.95869000     -0.90117400      4.80507000       1
H              -4.40291000      1.17715000      2.65423000       1
N              -4.41203000      0.19933300      3.00661000       7
I               5.23404000     -0.02454520      1.39518000      53
I              -4.38640000     -3.12761000      0.80336400      53
I              -4.39278000      3.10885000      0.89516200      53
H               1.77561000     -4.64762000     -2.29884000       1
I              -1.15041000      3.71224000      4.00135000      53
I              -1.15445000     -3.73927000      3.97494000      53
H               2.84754000      0.65700500      4.88637000       1
H               1.65341000      4.99837000     -2.46381000       1
H              -5.24913000     -0.24883600      2.58166000       1
N              -4.86802000     -0.06773060     -3.32487000       7
H              -3.57985000      0.65700500      4.88637000       1
H              -4.63383000     -0.89531000     -3.91006000       1
I              -1.25633000     -0.00913390     -6.00529000      53
P               5.23557000      3.14366000      0.80247300      15
H              -4.72634000      0.79605800     -3.88468000       1
P               5.25425000     -3.17061000      0.78912600      15
H               0.64108400      6.00430000     -1.56140000       1
I               5.25984000      2.60312000     -2.33573000      53
I               5.23913000     -2.62418000     -2.37384000      53
C              -4.46170000      0.14611000      4.49488000       6
I              -1.09738000      6.29475000      0.25491200      53
I              -1.13804000     -6.33292000      0.25491200      53
P              -1.28709000      3.13650000     -5.52350000      15
C               2.26797000     -5.62110000     -2.35820000       6
I               1.96090000      3.06815000     -5.41139000      53
P              -1.26842000     -3.16136000     -5.57717000      15
N               1.25632000      5.94692000     -2.40343000       7
I               1.96963000     -3.09436000     -5.46386000      53
H              -4.46870000     -0.90117400      4.80507000       1
H               2.88893000     -5.78810000     -1.47613000       1
H              -5.87629000     -0.13421100     -3.08979000       1
I              -1.25496000      0.01411480      6.68263000      53
H               0.60042400     -6.62337000     -1.56140000       1
H               1.78226000     -6.27754000      2.28589000       1
H               0.62497300      6.08750000     -3.22383000       1
H               0.66806200      5.46648000      4.21735000       1
H              -3.53846000     -5.78810000     -1.47613000       1
H               2.86394000     -5.36056000      3.38314000       1
H              -4.65178000     -4.64762000     -2.29884000       1
H               0.59930300     -5.49636000      4.23813000       1
H               1.82292000      6.35014000      2.28589000       1
H               2.96040000      5.47313000      3.35982000       1
H               2.86700000     -5.68958000     -3.26814000       1
N               1.21566000     -6.68075000     -2.40343000       7
H              -5.37160000      0.65076600      4.82606000       1
H              -3.56345000     -5.36056000      3.38314000       1
H              -3.46698000      5.47313000      3.35982000       1
H               0.58431400     -6.54018000     -3.22383000       1
H              -4.77398000      4.99837000     -2.46381000       1
C              -4.15942000     -5.62110000     -2.35820000       6
C               2.28166000     -6.27505000      3.25750000       6
H              -3.56039000     -5.68958000     -3.26814000       1
C               2.32232000      6.35263000      3.25750000       6
H               2.92959000      6.83957000     -1.47613000       1
I               5.27293000     -3.73927000      3.97494000      53
I               5.27697000      3.71224000      4.00135000      53
H               6.97848000     -0.13421100     -3.08979000       1
I              -4.46649000      3.06815000     -5.41139000      53
I              -4.45775000     -3.09436000     -5.46386000      53
C               2.30863000      7.00658000     -2.35820000       6
I              -7.62074000     -0.02454520      1.39518000      53
N               1.27873000      6.30739000      4.32454000       7
N               1.23807000     -6.32028000      4.32454000       7
H              -3.49780000      6.83957000     -1.47613000       1
P              -1.26705000     -3.13811000      7.11075000      15
I               5.17106000     -0.00913390     -6.00529000      53
P              -1.28572000      3.15975000      7.16442000      15
H               1.05441000      0.62751700     -7.86186000       1
H               7.60564000     -0.24883600      2.58166000       1
I               1.97100000     -3.07111000      7.22406000      53
I              -1.14713000      6.30086000     -5.00437000      53
H              -4.64513000     -6.27754000      2.28589000       1
I               1.96227000      3.09140000      7.27653000      53
I              -1.18779000     -6.32681000     -5.00437000      53
H              -4.60447000      6.35014000      2.28589000       1
P               5.14030000      3.13650000     -5.52350000      15
H               1.95732000     -0.92442300     -7.88286000       1
H               1.61275000     -7.62930000     -2.46381000       1
C              -4.14573000     -6.27505000      3.25750000       6
H               2.90766000      6.93809000     -3.26814000       1
P               5.15897000     -3.16136000     -5.57717000      15
C              -4.10507000      6.35263000      3.25750000       6
N              -5.17107000      5.94692000     -2.40343000       7
I               5.33000000      6.29475000      0.25491200      53
I               5.28934000     -6.33292000      0.25491200      53
P              -7.60053000     -3.17061000      0.78912600      15
P              -7.61920000      3.14366000      0.80247300      15
H               0.63996300      7.13131000      4.23813000       1
H               2.84617000      0.63375600     -7.80155000       1
H               0.62740300     -7.16120000      4.21735000       1
I              -7.59493000      2.60312000     -2.33573000      53
H               1.68463000      6.30709000      5.26914000       1
H               1.64397000     -6.32058000      5.26914000       1
I              -7.61564000     -2.62418000     -2.37384000      53
C               1.96431000      0.12286200     -8.19304000       6
H               2.91974000     -7.15454000      3.35982000       1
H              -3.51973000      6.93809000     -3.26814000       1
I               5.17243000      0.01411480      6.68263000      53
C              -4.11876000      7.00658000     -2.35820000       6
H              -5.78630000      6.00430000     -1.56140000       1
H               1.81627000      7.98005000     -2.29884000       1
H               2.90460000      7.26711000      3.38314000       1
H              -3.58122000      0.63375600     -7.80155000       1
H              -3.50764000     -7.15454000      3.35982000       1
N               7.98675000     -0.06773060     -3.32487000       7
H               8.52177000      0.83103800     -1.49201000       1
H              -3.52279000      7.26711000      3.38314000       1
H               8.61963000     -0.96155100     -1.52159000       1
N              -5.21173000     -6.68075000     -2.40343000       7
H               7.48317000      0.65076600      4.82606000       1
H               8.45186000      1.17715000      2.65423000       1
H              -5.82696000     -6.62337000     -1.56140000       1
N               8.44274000      0.19933300      3.00661000       7
H              -5.75932000      5.46648000      4.21735000       1
H               1.79493000     -0.87206200      8.77787000       1
H               1.70241000      0.81930700      8.80324000       1
H              -5.80241000      6.08750000     -3.22383000       1
I              -4.45638000     -3.07111000      7.22406000      53
H               8.12843000      0.79605800     -3.88468000       1
C               8.81064000     -0.04275890     -2.08042000       6
I               8.46199000      3.10885000      0.89516200      53
H              -5.82808000     -5.49636000      4.23813000       1
I               8.46838000     -3.12761000      0.80336400      53
I              -4.46512000      3.09140000      7.27653000      53
H              -4.47007000     -0.92442300     -7.88286000       1
H               8.22094000     -0.89531000     -3.91006000       1
N              -5.14866000      6.30739000      4.32454000       7
N              -5.18932000     -6.32028000      4.32454000       7
P               5.16034000     -3.13811000      7.11075000      15
C              -4.46307000      0.12286200     -8.19304000       6
I              -7.57780000      3.71224000      4.00135000      53
I              -7.58184000     -3.73927000      3.97494000      53
H              -5.84307000     -6.54018000     -3.22383000       1
H              -4.81464000     -7.62930000     -2.46381000       1
P               5.14167000      3.15975000      7.16442000      15
H               7.06847000      6.00430000     -1.56140000       1
H              -4.74276000      6.30709000      5.26914000       1
N               1.56074000     -0.04448190      9.36305000       7
H              -4.61112000      7.98005000     -2.29884000       1
I              -1.15178000      3.68900000     -8.68657000      53
H              -4.78342000     -6.32058000      5.26914000       1
C               8.39307000      0.14611000      4.49488000       6
H              -5.37298000      0.62751700     -7.86186000       1
P              -1.13248000      9.45706000      0.78912600      15
I              -1.15583000     -3.76252000     -8.71298000      53
P              -1.23248000     -9.48401000      0.80247300      15
H               0.55246900     -0.11096200      9.59813000       1
I               5.23960000     -6.32681000     -5.00437000      53
I               5.28026000      6.30086000     -5.00437000      53
H               9.30148000     -0.25125100      2.63042000       1
H               8.20299000     -4.64762000     -2.29884000       1
H               8.38608000     -0.90117400      4.80507000       1
H              -9.41869000      0.01897340     -2.36460000       1
I              -7.68371000     -0.00913390     -6.00529000      53
I               2.08165000      9.50007000      0.80336400      53
I               1.99395000     -9.51882000      0.89516200      53
H               7.02781000     -6.62337000     -1.56140000       1
I              -1.11379000      8.88840000      3.97494000      53
I              -7.52477000      6.29475000      0.25491200      53
H               8.08080000      4.99837000     -2.46381000       1
I              -1.19107000     -8.91543000      4.00135000      53
H               7.05236000      6.08750000     -3.22383000       1
H               1.68326000      6.28385000     -7.41878000       1
I              -7.56543000     -6.33292000      0.25491200      53
H               7.02669000     -5.49636000      4.23813000       1
N               2.01399000      0.17608500     -9.68132000       7
H               1.64260000     -6.34383000     -7.41878000       1
H               7.09545000      5.46648000      4.21735000       1
H              -4.63246000     -0.87206200      8.77787000       1
P              -7.71448000      3.13650000     -5.52350000      15
I              -1.18642000     -6.30356000      7.68355000      53
