200
cutoff_factor=1.20000000 nneightol=1.20000000 Lattice="27.94100000       0.00000000       0.00000000       0.00000000      29.01969000       0.00000000       0.00000000       0.00000000      27.37451000" Properties=species:S:1:pos:R:3:Z:I:1
H              -0.43355100     -0.92331700      0.35662800       1
H              -1.38239000      0.12881100     -0.49624500       1
N              -1.36778000     -0.46897300      0.35653100       7
H              -1.38247000      0.12902400      1.20915000       1
I               2.17135000     -1.01832000      0.35660000      53
C              -2.47047000     -1.47251000      0.35661100       6
I              -0.39916900      0.91133400     -2.79648000      53
H              -2.37328000     -2.08867000     -0.53935400       1
H              -2.37346000     -2.08832000      1.25284000       1
H              -3.42508000     -0.94167300      0.35640400       1
H               1.04549000      3.47537000      0.35681100       1
I              -0.39915300      0.91141600      3.50959000      53
P               2.27037000     -1.00636000     -2.85571000      15
H               3.12169000      2.48046000     -0.49503000       1
H               3.12182000      2.48036000      1.20806000       1
I              -2.25951000      3.57340000      0.35658200      53
P               2.27032000     -1.00631000      3.56892000      15
N               3.11928000      3.07992000      0.35655300       7
C               1.97904000      4.04242000      0.35671700       6
I               0.36337900     -3.55243000     -2.96693000      53
H               2.05250000     -4.32219000     -0.53986400       1
H               2.05272000     -4.32226000      1.25333000       1
P              -2.18966000      3.55983000     -2.85864000      15
H               2.05154000      4.66148000     -0.53986400       1
I               0.36327600     -3.55233000      3.68011000      53
I               4.07393000      1.67734000     -2.81190000      53
H               2.05175000      4.66142000      1.25333000       1
C               1.98000000     -4.94126000      0.35671700       6
H               4.03606000      3.56774000      0.35650900       1
H              -2.63456000     -0.49344800     -4.76946000       1
P              -2.18970000      3.55986000      3.57181000      15
H               1.04645000     -5.50831000      0.35681100       1
H               5.52822000     -0.94167300      0.35640400       1
I               4.07395000      1.67733000      3.52511000      53
I              -4.09742000     -2.83507000     -2.87026000      53
I              -2.25854000     -5.41028000      0.35658200      53
I              -4.87937000      1.67734000     -2.81190000      53
H              -0.59332900     -1.40333000     -5.73179000       1
H              -4.91725000      3.56774000      0.35650900       1
H              -2.63448000     -0.49371600      5.48239000       1
I              -4.09753000     -2.83511000      3.58348000      53
I               0.36241000      5.43125000     -2.96693000      53
I              -4.87936000      1.67733000      3.52511000      53
I               4.85588000     -2.83507000     -2.87026000      53
H              -5.83161000      2.48046000     -0.49503000       1
C              -2.53650000     -0.61213500     -5.85108000       6
H               3.09140000      2.66857000     -4.97903000       1
H              -5.83148000      2.48036000      1.20806000       1
I               2.14325000     -0.86321700     -6.05696000      53
P              -2.18869000     -5.42384000     -2.85864000      15
H              -1.80493000     -2.57715000     -5.70872000       1
N              -1.51803000     -1.66943000     -6.11948000       7
I               0.36230800      5.43135000      3.68011000      53
N              -5.83403000      3.07992000      0.35655300       7
H              -0.59336300     -1.40362000      6.44498000       1
C               6.48283000     -1.47251000      0.35661100       6
I               4.85577000     -2.83511000      3.58348000      53
N               3.12024000     -5.90376000      0.35655300       7
H              -2.19619000      0.31948800     -6.30886000       1
H               4.03702000     -5.41593000      0.35650900       1
P              -2.18873000     -5.42381000      3.57181000      15
I              -6.78196000     -1.01832000      0.35660000      53
H               0.99002500      3.56382000     -5.83293000       1
H               6.58003000     -2.08867000     -0.53935400       1
H               3.09151000      2.66840000      5.69230000       1
H               6.57984000     -2.08832000      1.25284000       1
C              -2.53641000     -0.61210700      6.56404000       6
H              -1.80512000     -2.57728000      6.42217000       1
I               2.14319000     -0.86323700      6.77015000      53
N              -1.51811000     -1.66950000      6.83271000       7
H               2.67105000      1.91456000     -6.41237000       1
H               3.12266000     -6.50322000     -0.49503000       1
H              -3.48619000     -0.92833600     -6.28853000       1
N               2.95806000      2.82234000     -6.00183000       7
H              -2.37424000      6.89501000     -0.53935400       1
H               3.12279000     -6.50332000      1.20806000       1
H              -4.91628000     -5.41593000      0.35650900       1
P              -6.68293000     -1.00636000     -2.85571000      15
H              -2.19593000      0.31958900      7.02155000       1
H              -2.37443000      6.89536000      1.25284000       1
I              -2.33394000      3.62860000     -6.06439000      53
H              -1.38465000     -1.82343000     -7.14224000       1
H               2.28121000     -4.17225000     -5.81299000       1
H               0.98997300      3.56350000      6.54601000       1
H               7.57091000      0.12881100     -0.49624500       1
I               6.69380000      3.57340000      0.35658200      53
N               7.58552000     -0.46897300      0.35653100       7
C               1.93976000      3.87973000     -6.27050000       6
P              -6.68299000     -1.00631000      3.56892000      15
H               7.57084000      0.12902400      1.20915000       1
H               2.67124000      1.91469000      7.12582000       1
N               2.95813000      2.82240000      6.71506000       7
H              -3.48614000     -0.92802000      7.00161000       1
H               2.28024000      4.81143000     -5.81299000       1
C              -2.47144000      7.51117000      0.35661100       6
I              -4.09839000      6.14860000     -2.87026000      53
H               6.31874000     -0.49344800     -4.76946000       1
H               0.99099300     -5.41986000     -5.83293000       1
I              -2.33389000      3.62862000      6.77758000      53
C              -6.97427000      4.04242000      0.35671700       6
H               2.28095000     -4.17235000      6.52568000       1
H              -0.43451900      8.06036000      0.35662800       1
H               3.88281000      3.08822000     -6.38956000       1
H              -5.86190000      2.66857000     -4.97903000       1
P               6.76364000      3.55983000     -2.85864000      15
H              -6.90080000     -4.32219000     -0.53986400       1
H              -1.38476000     -1.82327000      7.85551000       1
I              -4.09850000      6.14857000      3.58348000      53
C               1.93967000      3.87970000      6.98346000       6
H              -6.90058000     -4.32226000      1.25333000       1
I               2.17038000      7.96535000      0.35660000      53
N              -5.83306000     -5.90376000      0.35655300       7
C               1.94073000     -5.10394000     -6.27050000       6
I               4.85491000      6.14860000     -2.87026000      53
H              -6.90177000      4.66148000     -0.53986400       1
H               6.31882000     -0.49371600      5.48239000       1
H               5.46711000     -0.92833600     -6.28853000       1
I              -2.33297000     -5.35507000     -6.06439000      53
H              -6.90155000      4.66142000      1.25333000       1
H               2.27998000      4.81132000      6.52568000       1
P               6.76360000      3.55986000      3.57181000      15
I              -0.39820100     -8.07234000     -2.79648000      53
C              -6.97330000     -4.94126000      0.35671700       6
H               0.99094200     -5.42018000      6.54601000       1
H               1.84169000      3.99812000     -7.35215000       1
H               8.51975000     -0.92331700      0.35662800       1
H              -5.86179000      2.66840000      5.69230000       1
I               4.85481000      6.14857000      3.58348000      53
I               6.69476000     -5.41028000      0.35658200      53
H               3.09237000     -6.31511000     -4.97903000       1
N              -1.36875000      8.51470000      0.35653100       7
H              -7.90782000      3.47537000      0.35681100       1
H               3.88284000      3.08851000      7.10275000       1
C               6.41680000     -0.61213500     -5.85108000       6
H              -5.07050000      3.08822000     -6.38956000       1
H              -5.83064000     -6.50322000     -0.49503000       1
H              -3.42605000      8.04200000      0.35640400       1
H              -1.80589000      6.40653000     -5.70872000       1
P               2.26940000      7.97732000     -2.85571000      15
I              -0.39818400     -8.07226000      3.50959000      53
H              -5.83051000     -6.50332000      1.20806000       1
I               4.07490000     -7.30634000     -2.81190000      53
C               1.94063000     -5.10398000      6.98346000       6
H               5.46716000     -0.92802000      7.00161000       1
N              -5.99524000      2.82234000     -6.00183000       7
I              -2.33292000     -5.35506000      6.77758000      53
H              -1.38143000     -8.85487000     -0.49624500       1
P               2.26935000      7.97737000      3.56892000      15
H              -1.38150000     -8.85465000      1.20915000       1
I               8.55413000      0.91133400     -2.79648000      53
H               3.09248000     -6.31527000      5.69230000       1
H               1.84265000     -4.98555000     -7.35215000       1
I               4.07491000     -7.30635000      3.52511000      53
N               2.95903000     -6.16134000     -6.00183000       7
P               6.76461000     -5.42384000     -2.85864000      15
I              -6.81005000     -0.86321700     -6.05696000      53
H              -6.28225000      1.91456000     -6.41237000       1
H               1.84160000      3.99839000      8.06508000       1
C               6.41689000     -0.61210700      6.56404000       6
I              -4.87840000     -7.30634000     -2.81190000      53
H              -1.38336000      9.11249000     -0.49624500       1
H              -1.80609000      6.40639000      6.42217000       1
H               6.75711000      0.31948800     -6.30886000       1
H              -5.07047000      3.08851000      7.10275000       1
I               8.55415000      0.91141600      3.50959000      53
H              -1.38343000      9.11270000      1.20915000       1
P               6.76457000     -5.42381000      3.57181000      15
I               0.37864000      1.65673000     -9.25106000      53
N              -5.99517000      2.82240000      6.71506000       7
H              -9.38685000     -0.92331700      0.35662800       1
I              -4.87839000     -7.30635000      3.52511000      53
H               7.14838000     -2.57715000     -5.70872000       1
H               3.88377000     -5.89546000     -6.38956000       1
H              -0.59429700      7.58035000     -5.73179000       1
H               6.57906000      6.89501000     -0.53935400       1
N              -1.36681000     -9.45265000      0.35653100       7
N               2.95910000     -6.16127000      6.71506000       7
P               2.28744000     -0.93197400     -9.26273000      15
H               6.57887000      6.89536000      1.25284000       1
I              -6.81011000     -0.86323700      6.77015000      53
H              -7.90685000     -5.50831000      0.35681100       1
N              -1.51900000      7.31424000     -6.11948000       7
H               1.84257000     -4.98529000      8.06508000       1
I               6.61936000      3.62860000     -6.06439000      53
H              -6.28206000      1.91469000      7.12582000       1
I              -0.40222000     -2.81450000     -9.30943000      53
H               6.75737000      0.31958900      7.02155000       1
I              -8.58992000     -3.55243000     -2.96693000      53
H               5.52725000      8.04200000      0.35640400       1
N               7.43527000     -1.66943000     -6.11948000       7
H              -6.67209000     -4.17225000     -5.81299000       1
I              -9.35247000      0.91133400     -2.79648000      53
H               2.67202000     -7.06912000     -6.41237000       1
H              -0.43258300     -9.90699000      0.35662800       1
C               6.48186000      7.51117000      0.35661100       6
H               7.14818000     -2.57728000      6.42217000       1
H              -5.86093000     -6.31511000     -4.97903000       1
H              -0.59433100      7.58005000      6.44498000       1
I              -8.59003000     -3.55233000      3.68011000      53
H               3.88380000     -5.89517000      7.10275000       1
