200
cutoff_factor=1.20000000 nneightol=1.20000000 Lattice="27.79689000       0.00000000       0.00000000       0.00000000      29.66167000       0.00000000       0.00000000       0.00000000      28.57400000" Properties=species:S:1:pos:R:3:Z:I:1
P               2.00404000     -0.00744741      0.05949430      15
H              -2.12561000      0.33529400      0.22075000       1
I               0.06533460     -2.48392000      0.37909700      53
I               0.36006000      1.04751000     -2.51019000      53
I               0.24885900      1.86191000      2.02606000      53
C              -3.19905000      0.20119000      0.37291700       6
H              -3.38656000     -0.38137500      1.27764000       1
H              -3.31082000     -1.48295000     -0.90500600       1
H               0.52036900     -1.75386000     -3.38998000       1
N              -3.75211000     -0.55019900     -0.79499400       7
H              -3.70090000      1.16987000      0.43042700       1
H              -3.60196000     -0.04195270     -1.69157000       1
H               0.13404500      4.24764000      1.14894000       1
H              -0.12458600     -3.02832000      3.22609000       1
H              -0.25889900      4.42400000     -1.21932000       1
H               1.48402000      4.30779000     -0.82516000       1
H               1.21921000     -2.10216000      3.97670000       1
I               3.79270000     -0.91801400      2.57015000      53
I               3.91312000     -1.68639000     -1.93303000      53
C               0.42990700     -2.77293000     -3.76915000       6
H              -0.48919400     -3.23664000     -3.40731000       1
I               4.01339000      2.50481000     -0.37469000      53
H               2.49104000      1.97931000     -3.66261000       1
H              -4.77613000     -0.70782900     -0.71879900       1
H               1.29756000     -3.36744000     -3.47389000       1
C               0.59042800      4.93214000     -0.76143400       6
C               0.47746300     -2.88982000      4.12550000       6
N               0.28489500      5.16697000      0.67722800       7
H              -0.95487300     -1.61893000      4.99260000       1
I              -3.06003000     -0.23275400      4.42864000      53
I              -2.99970000      4.04803000     -1.97404000      53
P              -1.58354000     -5.18555000      0.03544950      15
H               3.98381000      1.47446000      3.43277000       1
P              -1.63924000      2.62260000     -4.50605000      15
P              -1.59723000      2.58852000      4.55098000      15
H               3.72118000      2.84608000     -2.95174000       1
I              -3.20436000     -3.83307000     -2.41321000      53
H               3.08163000     -4.59067000      0.79132000       1
H               3.27031000      2.99761000      3.48544000       1
N               3.21384000      2.70481000     -3.84975000       7
I              -3.73747000      0.22570200     -4.30811000      53
N              -0.43050900     -2.48543000      5.23218000       7
H               1.11008000      5.61295000      1.13771000       1
H              -0.54607500      5.76173000      0.79132000       1
H               0.95938400     -3.82759000      4.40518000       1
N               0.37843900     -2.72130000     -5.26132000       7
I              -3.80420000      3.84839000      2.60798000      53
H              -0.42091100     -2.16454000     -5.59649000       1
I              -3.94419000     -4.07420000      2.02814000      53
H               2.68948000      3.57132000     -4.08934000       1
H               0.76659200      5.89529000     -1.24208000       1
N               4.06966000      2.44085000      3.82061000       7
H               1.25653000     -2.30076000     -5.63856000       1
H               6.18715000     -0.70782900     -0.71879900       1
H               4.39429000     -4.45711000     -1.24208000       1
H              -1.15332000     -3.21094000      5.41933000       1
N               3.91260000     -5.18543000      0.67722800       7
H               0.07683130     -2.34417000      6.13019000       1
I               0.62800000     -6.30437000     -1.97404000      53
H               4.94775000      2.86139000      3.44337000       1
H               4.60374000      1.36266000     -4.67675000       1
H               0.29259400     -3.68769000     -5.64916000       1
H               3.20202000      1.92551000      5.67463000       1
H               4.73778000     -4.73945000      1.13771000       1
I               0.48685200      1.32908000      6.66873000      53
I               0.58432600      4.95750000     -4.65330000      53
C               4.12182000      2.30043000     -4.95643000       6
C               4.21813000     -5.42026000     -0.76143400       6
H               3.36880000     -5.92839000     -1.21932000       1
I              -0.17650000     -6.50401000      2.60798000      53
C               4.12112000      2.38922000      5.31278000       6
I              -0.29984000      1.11605000     -7.05379000      53
H               3.51977000      2.16193000     -5.85584000       1
I              -0.04625840      5.38785000      4.77382000      53
H               3.76175000     -6.10475000      1.14894000       1
N               7.21116000     -0.55019900     -0.79499400       7
P              -5.21124000      5.16684000      0.03544950      15
H               7.26237000      1.16987000      0.43042700       1
I              -6.94988000      2.50481000     -0.37469000      53
I               3.39138000      6.27820000      2.02814000      53
P              -5.28845000     -2.57363000     -4.53095000      15
P              -5.28359000     -2.56765000      4.57589000      15
I               3.46785000     -1.31376000     -6.47395000      53
H              -6.01553000      2.86139000      3.44337000       1
I              -7.05015000     -1.68639000     -1.93303000      53
H               7.36131000     -0.04195270     -1.69157000       1
I              -7.17057000     -0.91801400      2.57015000      53
H               7.57671000     -0.38137500      1.27764000       1
H               4.86356000      3.08809000     -5.10523000       1
P               5.67482000     -2.57363000     -4.53095000      15
H               4.98877000      1.79470000      5.60804000       1
P               5.75203000      5.16684000      0.03544950      15
P               5.67968000     -2.56765000      4.57589000      15
I               3.58144000     -4.96455000      4.77382000      53
C               7.76422000      0.20119000      0.37291700       6
H               7.65245000     -1.48295000     -0.90500600       1
H               4.21159000      3.40829000      5.69195000       1
H              -6.22549000     -4.73945000      1.13771000       1
H              -6.97946000      1.47446000      3.43277000       1
H               5.11172000     -6.04460000     -0.82516000       1
H              -6.35953000      1.36266000     -4.67675000       1
H              -6.56898000     -4.45711000     -1.24208000       1
I               4.13120000      6.51933000     -2.41321000      53
H              -2.33015000      6.98495000     -3.47389000       1
N              -6.89362000      2.44085000      3.82061000       7
I               4.21203000     -5.39490000     -4.65330000      53
H              -2.66832000      6.52480000      4.40518000       1
H              -7.24209000      2.84608000     -2.95174000       1
H              -2.58114000      0.45080200     -7.94422000       1
I               7.01908000     -4.07420000      2.02814000      53
H              -2.87776000      0.70503700      7.83985000       1
H              -5.97450000      1.79470000      5.60804000       1
I               4.31922000     -1.14222000      7.10790000      53
I               7.22580000      0.22570200     -4.30811000      53
I              -3.28429000     -4.14274000      6.57174000      53
H              -5.85155000     -6.04460000     -0.82516000       1
I              -3.44236000     -3.30024000     -7.05587000      53
I              -3.32217000     -7.84759000     -0.37469000      53
H              -6.09971000      3.08809000     -5.10523000       1
I               7.15907000      3.84839000      2.60798000      53
I              -3.52621000      4.27223000     -6.51178000      53
H              -2.16033000     -0.88245700      8.25677000       1
H              -2.38782000     -7.49101000      3.44337000       1
I              -3.35893000      3.47576000      7.14891000      53
I              -3.56237000      7.86848000      0.37909700      53
C              -6.74514000     -5.42026000     -0.76143400       6
H              -3.55717000     -0.91450200     -7.93299000       1
C              -6.84146000      2.30043000     -4.95643000       6
N              -7.05067000     -5.18543000      0.67722800       7
H              -3.90325000     -0.76624600      7.86261000       1
H              -3.61438000     -7.50632000     -2.95174000       1
H              -3.75229000      7.32408000      3.22609000       1
H               8.83766000      0.33529400      0.22075000       1
C              -3.05392000     -0.25811200      8.32050000       6
I               0.28541700      8.66601000     -1.93303000      53
H              -4.11690000      7.11576000     -3.40731000       1
I               0.10148800     -6.08016000     -6.51178000      53
P              -8.95923000     -0.00744741      0.05949430      15
H              -7.69297000      2.99761000      3.48544000       1
H               0.38039700      3.67920000      8.17693000       1
I               7.75891000     -3.83307000     -2.41321000      53
C              -6.84215000      2.38922000      5.31278000       6
H               0.08925620      5.12019000      7.39036000       1
C              -3.19780000      7.57947000     -3.76915000       6
I               7.90324000     -0.23275400      4.42864000      53
N              -7.74943000      2.70481000     -3.84975000       7
N              -3.40632000      0.00482074     -8.40470000       7
C              -3.15024000      7.46258000      4.12550000       6
H              -4.06526000     -7.35479000      3.48544000       1
I               0.36904200     -2.68544000      8.70724000      53
I               7.96357000      4.04803000     -1.97404000      53
H              -7.88164000     -4.59067000      0.79132000       1
P               1.98846000     -7.72980000     -4.50605000      15
H               0.25779200      4.80887000     -7.80429000       1
H              -4.64609000     -6.78108000     -4.08934000       1
H              -0.07319530     -9.18252000      0.43042700       1
H              -2.47200000     -7.26431000     -5.10523000       1
P               2.03047000     -7.76388000      4.55098000      15
P               2.04712000      7.77877000     -4.53095000      15
P               2.05197000      7.78475000      4.57589000      15
P               2.06081000      0.00469481     -9.04648000      15
H              -4.23729000      0.59958200     -8.29061000       1
H              -3.33511000      6.66471000     -5.64916000       1
P               2.10768000     -0.02340650      9.11738000      15
N              -3.26591000     -7.91155000      3.82061000       7
H              -8.47223000      1.97931000     -3.66261000       1
H              -6.75169000      3.40829000      5.69195000       1
H              -2.40849000      8.25024000      3.97670000       1
N              -0.06089220      4.61195000      8.28694000       7
N              -4.12172000     -7.64758000     -3.84975000       7
H              -3.12398000     -6.94411000      5.69195000       1
H              -7.20152000     -6.10475000      1.14894000       1
H              -1.08491000      4.45432000      8.36313000       1
I               3.87656000     -8.49049000      2.02606000      53
H              -7.59447000     -5.92839000     -1.21932000       1
H              -7.44350000      2.16193000     -5.85584000       1
I              -6.83207000      6.51933000     -2.41321000      53
H              -3.10733000      8.59854000     -3.38998000       1
I               0.16500100      9.43438000      2.57015000      53
H               4.02475000      8.86945000     -0.90500600       1
H               3.71696000     -5.23220000      7.39036000       1
I              -6.64406000     -1.14222000      7.10790000      53
H              -7.76125000      1.92551000      5.67463000       1
I              -6.75124000     -5.39490000     -4.65330000      53
N              -3.24926000      7.63109000     -5.26132000       7
I               0.32217800     -2.65734000     -9.45662000      53
I               3.70969000      2.70633000     -8.70283000      53
H              -8.27379000      3.57132000     -4.08934000       1
I               4.05128000      6.20965000      6.57174000      53
I               0.26876800     -6.87664000      7.14891000      53
C              -3.21375000     -8.05197000     -4.95643000       6
I              -7.49542000     -1.31376000     -6.47395000      53
H               2.55944000      9.64457000     -0.71879900       1
I              -7.57190000      6.27820000      2.02814000      53
H              -3.35176000     -8.87794000      3.43277000       1
I              -7.38183000     -4.96455000      4.77382000      53
C              -3.21444000     -7.96318000      5.31278000       6
H              -2.37117000      8.05163000     -5.63856000       1
H               6.31718000     -6.78108000     -4.08934000       1
H               1.50209000    -10.01710000      0.22075000       1
