200
cutoff_factor=1.20000000 nneightol=1.20000000 Lattice="27.60580000       0.00000000       0.00000000       0.00000000      28.37805000       0.00000000       0.00000000       0.00000000      28.47475000" Properties=species:S:1:pos:R:3:Z:I:1
I              -0.40344400      0.65439200     -0.04434110      53
H              -0.34418200     -2.67619000      0.05011560       1
P               2.77447000      0.47650900     -0.02016780      15
H              -0.57426800      3.32941000     -0.46714400       1
P              -3.65541000      0.47650900     -0.02016780      15
H              -0.84502200     -0.52272800     -3.58261000       1
C              -0.05644610     -3.70842000      0.26217000       6
H              -0.85500800      1.54560000      3.37913000       1
H               1.00861000     -3.85547000      0.06973010       1
I               2.84449000     -2.12127000     -1.86095000      53
H              -1.76666000      0.15443900      3.62761000       1
H               0.58743100     -0.31062900      4.03682000       1
I               2.88269000     -1.30506000      2.60388000      53
H              -0.29700300     -3.96815000      1.29544000       1
H              -1.81246000      0.85061300     -3.72541000       1
N              -1.15810000      0.86572900      4.09132000       7
N              -1.19969000      0.18293600     -4.24409000       7
N              -0.80378700      4.32837000     -0.64385700       7
H               0.51767000      1.40766000     -4.20478000       1
I               2.86952000      2.33451000     -2.64368000      53
I              -3.58539000     -2.12127000     -1.86095000      53
I              -3.54720000     -1.30506000      2.60388000      53
I               2.89908000      3.14405000      1.80539000      53
N              -0.82968600     -4.61068000     -0.64385700       7
H              -0.64539000     -4.39366000     -1.64365000       1
C              -0.00653761      0.21941800      4.78229000       6
H              -1.82106000      4.44434000     -0.47675900       1
H              -0.61949000      4.54539000     -1.64365000       1
H              -1.84696000     -4.49470000     -0.47675900       1
I              -3.56037000      2.33451000     -2.64368000      53
C              -0.09969820      0.90395100     -4.95055000       6
I              -3.53080000      3.14405000      1.80539000      53
H              -0.27110400      4.97090000      1.29544000       1
H               1.03451000      5.08358000      0.06973010       1
C              -0.03054710      5.23062000      0.26217000       6
H              -1.82312000     -0.29981000     -4.93023000       1
H              -1.76761000      1.36270000      4.77988000       1
H               0.58563300      0.99856900      5.26444000       1
H               0.48946000      0.17342500     -5.50749000       1
H              -0.39711700     -0.47899400      5.52587000       1
H              -0.60016700     -5.60963000     -0.46714400       1
H              -0.54567200      1.63244000     -5.63164000       1
I              -0.43442300     -3.97078000     -4.33683000      53
H               4.66323000      0.15443900      3.62761000       1
I              -0.36297900     -3.92939000      4.48025000      53
H               4.61743000      0.85061300     -3.72541000       1
I               6.02644000      0.65439200     -0.04434110      53
H              -0.31828300      6.26286000      0.05011560       1
H               4.60882000      4.44434000     -0.47675900       1
H               4.58292000     -4.49470000     -0.47675900       1
P               2.83758000     -3.95262000      4.40698000      15
P               2.75339000     -3.97201000     -4.49999000      15
I              -0.40852400      4.96827000     -4.33683000      53
H               6.08570000     -2.67619000      0.05011560       1
H              -5.42127000     -3.85547000      0.06973010       1
H               5.58486000     -0.52272800     -3.58261000       1
H               5.57488000      1.54560000      3.37913000       1
I               2.87318000     -5.79500000      1.80539000      53
N               5.27179000      0.86572900      4.09132000       7
I              -0.33708000      5.00965000      4.48025000      53
N               5.23020000      0.18293600     -4.24409000       7
H               5.85562000      3.32941000     -0.46714400       1
H               4.60677000     -0.29981000     -4.93023000       1
H               4.66227000      1.36270000      4.77988000       1
I              -6.83333000      0.65439200     -0.04434110      53
P              -3.59230000     -3.95262000      4.40698000      15
I              -3.55670000     -5.79500000      1.80539000      53
P              -3.67650000     -3.97201000     -4.49999000      15
H              -5.84245000     -0.31062900      4.03682000       1
I               2.85798000     -1.37960000     -6.36117000      53
N               5.62610000      4.32837000     -0.64385700       7
P               2.86348000      4.98642000      4.40698000      15
P               2.77929000      4.96704000     -4.49999000      15
N               5.60020000     -4.61068000     -0.64385700       7
H              -6.77407000     -2.67619000      0.05011560       1
I               2.94369000      2.35962000      6.29572000      53
C               6.37344000     -3.70842000      0.26217000       6
H              -5.91221000      1.40766000     -4.20478000       1
H              -5.39537000      5.08358000      0.06973010       1
H               6.13288000     -3.96815000      1.29544000       1
I              -3.57190000     -1.37960000     -6.36117000      53
H               5.78449000     -4.39366000     -1.64365000       1
C              -6.48633000     -3.70842000      0.26217000       6
P              -3.56641000      4.98642000      4.40698000      15
H               5.81039000      4.54539000     -1.64365000       1
I              -3.48620000      2.35962000      6.29572000      53
I               2.87039000      6.81778000     -1.86095000      53
P              -3.65060000      4.96704000     -4.49999000      15
I               2.84362000     -6.60454000     -2.64368000      53
H              -7.00415000      3.32941000     -0.46714400       1
I               2.85109000     -2.11007000      7.06398000      53
I              -3.55949000      6.81778000     -1.86095000      53
H              -6.72689000     -3.96815000      1.29544000       1
H              -5.84425000      0.99856900      5.26444000       1
I              -3.58627000     -6.60454000     -2.64368000      53
C               6.42335000      0.21941800      4.78229000       6
H               6.15878000      4.97090000      1.29544000       1
C              -6.43642000      0.21941800      4.78229000       6
C               6.33018000      0.90395100     -4.95055000       6
H               7.01731000     -0.31062900      4.03682000       1
H              -5.94042000      0.17342500     -5.50749000       1
H               5.82972000     -5.60963000     -0.46714400       1
H              -7.27490000     -0.52272800     -3.58261000       1
I               2.78539000      3.06678000     -7.04928000      53
H              -0.88090700     -7.39345000      3.37913000       1
H              -7.28489000      1.54560000      3.37913000       1
H               6.03277000     -0.47899400      5.52587000       1
I              -3.57879000     -2.11007000      7.06398000      53
H               6.94755000      1.40766000     -4.20478000       1
C              -6.52958000      0.90395100     -4.95055000       6
C               6.39934000      5.23062000      0.26217000       6
I              -0.42934300     -8.28465000     -0.04434110      53
H               5.88421000      1.63244000     -5.63164000       1
C              -6.46043000      5.23062000      0.26217000       6
H               7.43849000     -3.85547000      0.06973010       1
I               5.99546000     -3.97078000     -4.33683000      53
H              -6.70099000      4.97090000      1.29544000       1
N              -7.23367000      4.32837000     -0.64385700       7
H               0.48756900     -3.19422000      7.81780000       1
H              -7.07527000     -4.39366000     -1.64365000       1
I               6.06690000     -3.92939000      4.48025000      53
I              -3.64449000      3.06678000     -7.04928000      53
H              -1.20890000     -3.17305000      7.80148000       1
H              -7.04937000      4.54539000     -1.64365000       1
I               2.90858000      7.63399000      2.60388000      53
N              -7.25957000     -4.61068000     -0.64385700       7
H               0.49177100     -7.53139000     -4.20478000       1
N              -7.58798000      0.86572900      4.09132000       7
N              -7.62957000      0.18293600     -4.24409000       7
H               6.11160000      6.26286000      0.05011560       1
H              -6.82700000     -0.47899400      5.52587000       1
I              -3.52130000      7.63399000      2.60388000      53
H               7.01552000      0.99856900      5.26444000       1
H               6.91934000      0.17342500     -5.50749000       1
H               0.43006900     -4.11083000     -7.85065000       1
P               2.74857000     -8.46254000     -0.02016780      15
I               6.02136000      4.96827000     -4.33683000      53
H              -8.19654000      0.15443900      3.62761000       1
H              -1.36243000     -4.08615000     -7.87144000       1
I              -0.33084700      0.41319800      8.96116000      53
I              -0.39944700      0.40389200     -8.96173000      53
N              -0.36556000     -3.13768000      8.40931000       7
H              -7.03005000     -5.60963000     -0.46714400       1
H               7.46439000      5.08358000      0.06973010       1
I              -6.79286000     -3.92939000      4.48025000      53
I              -6.86431000     -3.97078000     -4.33683000      53
I               6.09280000      5.00965000      4.48025000      53
H              -8.24234000      0.85061300     -3.72541000       1
H              -1.83836000     -8.08843000     -3.72541000       1
H              -0.35731300     -2.18797000      8.83375000       1
H              -6.97556000      1.63244000     -5.63164000       1
N              -1.18400000     -8.07332000      4.09132000       7
H              -1.79351000     -7.57635000      4.77988000       1
H              -0.81912300      8.41632000     -3.58261000       1
H              -6.74817000      6.26286000      0.05011560       1
P               9.20435000      0.47650900     -0.02016780      15
H               0.45596800      4.82821000     -7.85065000       1
P              -3.68131000     -8.46254000     -0.02016780      15
H              -0.57157100     -7.30661000     -5.63164000       1
H              -1.33653000      4.85289000     -7.87144000       1
H              -0.42591300     -2.19728000     -9.08915000       1
H              -8.25094000      4.44434000     -0.47675900       1
P               2.88027000      0.56951000      8.93935000      15
P               2.81167000      0.56020400     -8.98355000      15
H              -8.27684000     -4.49470000     -0.47675900       1
C              -0.12559700     -8.03509000     -4.95055000       6
C              -0.46066200     -4.21551000     -8.47341000       6
I              -6.83841000      4.96827000     -4.33683000      53
I              -6.76696000      5.00965000      4.48025000      53
H               0.55973400     -7.94048000      5.26444000       1
H               0.61333000      8.62842000      4.03682000       1
I               2.91779000     -6.57943000      6.29572000      53
I               2.75949000     -5.87227000     -7.04928000      53
H              -8.19750000      1.36270000      4.77988000       1
I              -0.37754500      9.59344000     -0.04434110      53
H              -8.25300000     -0.29981000     -4.93023000       1
P              -3.54962000      0.56951000      8.93935000      15
H              -1.79256000     -8.78461000      3.62761000       1
I               9.27438000     -2.12127000     -1.86095000      53
P              -3.61822000      0.56020400     -8.98355000      15
C              -0.43476300      4.72354000     -8.47341000       6
H               0.51346800      5.74483000      7.81780000       1
H              -0.37383100      3.76132000      8.95016000       1
H              -0.44243200      3.75201000     -8.97273000       1
I               9.31257000     -1.30506000      2.60388000      53
I              -3.51210000     -6.57943000      6.29572000      53
H              -1.18300000      5.76599000      7.80148000       1
N              -1.22559000     -8.75611000     -4.24409000       7
P               2.80037000      9.41555000     -0.02016780      15
H               5.54898000     -7.39345000      3.37913000       1
I              -3.67039000     -5.87227000     -7.04928000      53
H               5.22099000     -3.17305000      7.80148000       1
H              -1.74076000      9.09348000      3.62761000       1
C              -0.03243670     -8.71963000      4.78229000       6
I               9.29940000      2.33451000     -2.64368000      53
I               9.32896000      3.14405000      1.80539000      53
H               4.59153000     -8.08843000     -3.72541000       1
N              -0.43416000     -3.14699000     -9.51359000       7
H               4.63637000     -7.57635000      4.77988000       1
P              -3.62951000      9.41555000     -0.02016780      15
