200
cutoff_factor=1.20000000 nneightol=1.20000000 Lattice="28.77135000       0.00000000       0.00000000       0.00000000      28.56652000       0.00000000       0.00000000       0.00000000      29.34552000" Properties=species:S:1:pos:R:3:Z:I:1
I              -0.64849200      1.73774000     -0.03209110      53
H               0.20198900      0.27254200     -2.09105000       1
H               1.39628000      0.27800700      1.72812000       1
H               1.37808000     -0.91662500     -2.09104000       1
N               0.82949600     -0.28302000     -2.70956000       7
I              -1.54008000     -2.62645000      0.01048930      53
N               1.54856000      0.42830700      2.74453000       7
H              -0.38674800     -0.22322300      3.28120000       1
I               2.83374000     -1.78332000     -0.03211590      53
P              -3.37680000     -0.00918570     -0.02355650      15
H               0.26660000     -0.83973500     -3.37820000       1
H               1.35621000      1.43125000      2.93929000       1
C               0.64807100     -0.46238900      3.53643000       6
H               0.87562800     -1.49975000      3.28090000       1
H               2.32889000      1.19990000     -2.72871000       1
H               2.54934000      0.22472500      2.93898000       1
C               1.74765000      0.62504000     -3.45333000       6
H               1.14544000      1.29119000     -4.07531000       1
P               1.15566000      4.43554000     -0.02356110      15
I               3.76332000      2.61848000      0.01173870      53
P               1.05667000     -4.49206000     -0.02356110      15
I              -3.33752000      0.11552400     -3.20599000      53
H               0.83045400     -0.28227600      4.59801000       1
H               2.40712000      0.01549470     -4.07529000       1
I              -3.68588000      0.13999800      3.23905000      53
H              -2.66754000      3.82639000     -2.15858000       1
H              -2.19501000     -3.27416000     -3.65588000       1
I               1.30137000      4.12485000      3.23906000      53
P               5.55132000     -0.00918570     -0.02355650      15
I               1.18178000     -4.45418000     -3.20600000      53
I               1.28077000      4.47341000     -3.20600000      53
H              -3.41317000     -3.21685000      3.24742000       1
H              -3.28264000     -4.34981000      1.86123000       1
H              -3.82367000      2.76918000      3.34262000       1
I              -5.16481000      2.61848000      0.01173870      53
H              -2.05222000      4.43468000      3.24743000       1
H              -3.18365000      4.57779000      1.86123000       1
I               1.20238000     -4.80275000      3.23906000      53
H              -2.15121000     -4.49292000      3.24743000       1
H              -4.02821000     -3.82549000     -2.15852000       1
C              -3.16799000     -4.23642000      2.94154000       6
I               5.24225000      0.13999800      3.23905000      53
C              -3.44255000      4.32169000     -2.74808000       6
H              -2.76653000     -5.10121000     -2.15858000       1
N              -2.89967000     -3.97105000     -3.93567000       7
I              -0.51565600     -1.61332000     -6.07312000      53
H              -4.17808000      3.59426000     -3.09908000       1
C              -3.06900000      4.69118000      2.94154000       6
I              -6.09438000     -1.78332000     -0.03211590      53
C              -3.54154000     -4.60591000     -2.74808000       6
I               5.59061000      0.11552400     -3.20599000      53
I              -1.44109000      6.30115000      0.01048930      53
H               3.92886000      3.95793000      3.34262000       1
N              -4.01531000      3.75533000      3.61309000       7
H               4.89992000     -3.82549000     -2.15852000       1
H              -2.33046000      4.24782000     -4.54151000       1
I              -0.83996400      1.62833000      6.44099000      53
H               5.10446000      2.76918000      3.34262000       1
H               4.75005000      3.59426000     -3.09908000       1
H              -3.60316000     -3.49300000     -4.54147000       1
H              -3.92922000      5.10211000     -2.15852000       1
N              -2.80068000      4.95654000     -3.93567000       7
H              -2.42945000     -4.67978000     -4.54151000       1
I              -1.70954000     -2.79401000      6.16276000      53
H              -6.37879000      0.22472500      2.93898000       1
H              -2.09602000      5.65343000     -3.65588000       1
H               3.82987000     -4.96967000      3.34262000       1
I              -1.33529000      2.84342000     -6.40082000      53
P              -3.18707000      0.20621200     -6.38863000      15
N               4.91282000      3.75533000      3.61309000       7
H               5.51496000     -3.21685000      3.24742000       1
H              -3.95715000      3.81285000      4.64828000       1
H              -4.99927000      3.95793000      3.34262000       1
I              -0.74748200     -7.18986000     -0.03209110      53
H              -6.59924000      1.19990000     -2.72871000       1
I               2.72216000     -1.97353000      6.44101000      53
I               3.66433000     -6.30912000      0.01173870      53
P              -3.49756000     -0.19411000      6.45319000      15
H              -3.31418000      5.71075000      3.24742000       1
H               5.64549000     -4.34981000      1.86123000       1
H               4.99891000      5.10211000     -2.15852000       1
C               5.48558000      4.32169000     -2.74808000       6
H              -4.27707000     -5.33333000     -3.09908000       1
N              -4.11430000     -5.17226000      3.61309000       7
H               5.74448000      4.57779000      1.86123000       1
C               5.38659000     -4.60591000     -2.74808000       6
H               6.26059000      3.82639000     -2.15858000       1
I               3.16114000      2.02294000     -6.67907000      53
H              -6.52101000      0.01549470     -4.07529000       1
I               2.93273000      7.14427000     -0.03211590      53
H               4.65106000     -5.33333000     -3.09908000       1
C               5.76014000     -4.23642000      2.94154000       6
H              -7.53185000      0.27800700      1.72812000       1
H               4.97098000      3.81285000      4.64828000       1
P               1.27413000     -4.30476000     -6.38864000      15
H               5.32497000     -3.49300000     -4.54147000       1
P               0.96936800      4.31686000      6.45320000      15
I               7.38805000     -2.62645000      0.01048930      53
H              -5.09826000     -4.96967000      3.34262000       1
N              -7.37957000      0.42830700      2.74453000       7
H              -7.55004000     -0.91662500     -2.09104000       1
H              -3.50417000      5.43460000     -4.54147000       1
I               3.93172000     -2.48232000     -6.40084000      53
N               4.81383000     -5.17226000      3.61309000       7
P               0.87037800     -4.61074000      6.45320000      15
C              -7.18048000      0.62504000     -3.45333000       6
P               1.37312000      4.62284000     -6.38864000      15
H              -4.05614000     -5.11475000      4.64828000       1
H              -3.92266000     -6.15842000      3.34262000       1
C               5.85913000      4.69118000      2.94154000       6
I               3.64078000      2.49733000      6.76871000      53
H               1.25722000     -7.49635000      2.93929000       1
H               0.97461800      7.42785000      3.28090000       1
I              -5.26380000     -6.30912000      0.01173870      53
N               6.02846000     -3.97105000     -3.93567000       7
H               0.81453700     -0.29779600     -8.19355000       1
H              -7.57192000      1.43125000      2.93929000       1
H               6.16160000     -5.10121000     -2.15858000       1
H               6.73312000     -3.27416000     -3.65588000       1
H               0.55327800      0.61764700      8.30036000       1
H               1.47707000      8.01097000     -2.09104000       1
P               5.43057000     -0.19411000      6.45319000      15
H               4.87199000     -5.11475000      4.64828000       1
I               8.27964000      1.73774000     -0.03209110      53
I              -4.99641000     -2.48232000     -6.40084000      53
H               2.22990000     -7.72770000     -2.72871000       1
H               1.72700000     -0.56912900      8.30032000       1
N              -8.09863000     -0.28302000     -2.70956000       7
P               5.74106000      0.20621200     -6.38863000      15
H               5.00547000     -6.15842000      3.34262000       1
H               5.61395000      5.71075000      3.24742000       1
H               1.04645000     -7.63640000     -4.07531000       1
H               6.77692000     -4.49292000      3.24743000       1
H               0.36559000      8.08786000     -3.37820000       1
H               6.87591000      4.43468000      3.24743000       1
N               6.12745000      4.95654000     -3.93567000       7
H              -8.05250000     -1.49975000      3.28090000       1
I              -1.61055000      6.13359000      6.16276000      53
H              -7.78269000      1.29119000     -4.07531000       1
H               0.10299900     -8.65505000     -2.09105000       1
H               1.29729000     -8.64959000      1.72812000       1
H               5.42396000      5.43460000     -4.54147000       1
I              -5.28734000      2.49733000      6.76871000      53
I              -1.43428000     -6.08418000     -6.40082000      53
P              -7.77247000      4.43554000     -0.02356110      15
H              -8.72614000      0.27254200     -2.09105000       1
N               1.25677000      0.13959400      8.90616000       7
C              -8.28006000     -0.46238900      3.53643000       6
N               1.44957000     -8.49929000      2.74453000       7
I              -5.76699000      2.02294000     -6.67907000      53
P              -7.87146000     -4.49206000     -0.02356110      15
H               6.59767000      4.24782000     -4.54151000       1
N               0.92848600      8.64458000     -2.70956000       7
C               1.64866000     -8.30256000     -3.45333000       6
H               8.54138000     -0.22322300      3.28120000       1
I              -6.20597000     -1.97353000      6.44101000      53
C               0.74706100      8.46521000      3.53643000       6
H               6.49868000     -4.67978000     -4.54151000       1
I              -7.62676000      4.12485000      3.23906000      53
N               0.75637900     -0.35531400     -9.22874000       7
H              -0.28775800      8.70437000      3.28120000       1
H              -8.09768000     -0.28227600      4.59801000       1
I              -5.99540000      7.14427000     -0.03211590      53
H              -8.66153000     -0.83973500     -3.37820000       1
H               9.13012000      0.27254200     -2.09105000       1
I              -7.64736000      4.47341000     -3.20600000      53
H               1.96143000      0.83648400      9.18596000       1
H               0.30097800      9.20014000     -2.09105000       1
H               1.49527000      9.20560000      1.72812000       1
I              -7.74635000     -4.45418000     -3.20600000      53
P              -3.27781000      8.91841000     -0.02355650      15
H              -0.22758300     -0.15271800     -9.49921000       1
H               2.45035000     -8.70287000      2.93898000       1
I              -0.41666600      7.31428000     -6.07312000      53
P              -3.47579000     -8.93678000     -0.02355650      15
H               6.83211000      5.65343000     -3.65588000       1
N               0.73050600     -9.21062000     -2.70956000       7
H               0.94802200     -1.34147000     -9.49921000       1
I              -7.72575000     -4.80275000      3.23906000      53
I              -9.57662000      1.73774000     -0.03209110      53
H              -0.48573800     -9.15082000      3.28120000       1
I              -0.93895400     -7.29927000      6.44099000      53
I               7.48704000      6.30115000      0.01048930      53
H              -0.12063200     -1.22269000      9.74275000       1
H               9.19473000     -0.83973500     -3.37820000       1
H               1.45751000      1.60010000     -9.59441000       1
H               0.92944300      8.64532000      4.59801000       1
H              -9.31488000     -0.22322300      3.28120000       1
N               1.64755000      9.35590000      2.74453000       7
I               2.82115000      6.95407000      6.44101000      53
I               7.21859000     -2.79401000      6.16276000      53
H              -3.32599000     -4.39292000     -8.24382000       1
I               4.03071000      6.44528000     -6.40084000      53
H              -3.22700000      4.53467000     -8.24382000       1
H               2.64833000      9.15232000      2.93898000       1
H              -2.36457000      4.12614000      8.76654000       1
H               2.71947000      0.32403300     -9.59440000       1
I               3.54180000     -6.43027000      6.76871000      53
I              -3.43651000     -8.81207000     -3.20599000      53
I              -2.85507000      0.01420230     -9.60277000      53
