200
cutoff_factor=1.20000000 nneightol=1.20000000 Lattice="28.93978000       0.00000000       0.00000000       0.00000000      28.40002000       0.00000000       0.00000000       0.00000000      29.59620000" Properties=species:S:1:pos:R:3:Z:I:1
I              -0.96990000     -0.03400580      0.29309900      53
P               1.64148000     -1.64517000     -0.67550100      15
H               1.64334000      2.32300000     -0.79104300       1
H              -2.47480000      0.13650900     -1.77157000       1
H               0.11000100      3.12747000     -1.25853000       1
H              -1.62753000     -2.77497000      1.45202000       1
H               1.91222000      0.23084600      3.01617000       1
I               3.47357000      0.50719900      0.90498800      53
C               1.19722000      3.22298000     -1.21896000       6
I               1.71221000      0.09029810     -3.33607000      53
H               0.46436900     -0.09287040      3.84577000       1
P              -2.82922000      2.03129000      1.93862000      15
N              -3.11341000      0.01582360     -2.58789000       7
N               1.32244000      0.48200500      3.83810000       7
H               1.02490000      1.47216000      3.69493000       1
H              -1.61930000     -0.85183500     -3.79943000       1
I               1.71988000     -3.42841000      1.95072000      53
H               1.59845000      3.41144000     -2.21662000       1
I              -0.15688300     -3.91190000     -2.02578000      53
H               1.14462000      4.24458000      0.61092500       1
H              -3.61237000     -0.88876400     -2.43577000       1
H              -1.81701000      0.92010500     -3.98469000       1
C              -2.33687000     -0.03049750     -3.86209000       6
C              -2.25011000     -3.28407000      2.19044000       6
I              -0.07729700      3.63077000      2.88178000      53
N               1.53862000      4.38214000     -0.34501800       7
H              -3.80656000      0.77815000     -2.59393000       1
H              -2.81009000     -2.55958000      2.78605000       1
I              -2.87489000      3.93086000     -0.61527700      53
H              -1.63546000     -3.91652000      2.83418000       1
H               2.55826000      4.50552000     -0.28270000       1
I              -2.51066000      0.23632100      4.54057000      53
H              -3.82345000     -3.61889000      0.81319500       1
H               1.11535000      5.24838000     -0.74654400       1
N              -3.22089000     -4.15570000      1.46709000       7
C               2.08503000      0.32960200      5.11299000       6
I              -5.45637000      0.50719900      0.90498800      53
H              -3.03374000     -0.19684100     -4.68497000       1
I               4.33067000     -3.11979000     -1.74063000      53
H               1.38568000     -3.05662000     -4.50402000       1
H              -2.74614000     -4.87840000      0.89264400       1
H               2.35319000     -0.72135100      5.22852000       1
H               5.12338000      0.77815000     -2.59393000       1
I              -4.59927000     -3.11979000     -1.74063000      53
H               5.31757000     -0.88876400     -2.43577000       1
H               1.08689000     -5.78986000     -0.74654400       1
I              -0.84588800      3.51731000     -4.70979000      53
H               2.98197000      0.95069300      5.05707000       1
H               1.44707000      0.65454400      5.93729000       1
H               5.10649000     -3.61889000      0.81319500       1
N               5.81653000      0.01582360     -2.58789000       7
H              -3.82181000     -4.68200000      2.13622000       1
P               1.73689000      2.08591000     -5.85507000      15
C               2.02364000     -3.38157000     -5.32832000       6
H               6.45514000      0.13650900     -1.77157000       1
P               6.10072000      2.03129000      1.93862000      15
H               2.92059000     -2.76047000     -5.38425000       1
H              -2.71767000      6.15984000      0.89264400       1
N               1.51016000     -6.65610000     -0.34501800       7
P              -2.76187000     -5.37922000     -3.32572000      15
H               1.11616000     -6.79366000      0.61092500       1
I              -0.81296700     -3.80976000      5.73152000      53
I               4.34142000      4.23345000      3.42316000      53
H               2.52980000     -6.53272000     -0.28270000       1
I               3.60434000      4.16570000     -4.34910000      53
P              -2.73341000      5.65902000     -3.32572000      15
I              -4.58852000      4.23345000      3.42316000      53
H               0.96352100     -2.23901000     -6.74639000       1
P               1.76981000     -5.24116000      4.58625000      15
H               6.11984000     -2.55958000      2.78605000       1
N               5.70904000     -4.15570000      1.46709000       7
H               2.29181000     -4.43252000     -5.21280000       1
I               6.05505000      3.93086000     -0.61527700      53
H               5.10813000     -4.68200000      2.13622000       1
I              -2.57204000     -3.47485000     -5.90074000      53
H              -2.97236000      3.51433000      5.75634000       1
H              -1.55792000      2.85933000      6.64188000       1
I              -0.12842100      7.12634000     -2.02578000      53
N               1.26106000     -3.22916000     -6.60321000       7
P              -7.28846000     -1.64517000     -0.67550100      15
H               5.89620000     -0.19684100     -4.68497000       1
I              -0.13868000     -0.08040140     -7.55954000      53
P               1.79827000      5.79708000      4.58625000      15
H               0.40298500     -3.80404000     -6.59554000       1
C               6.59307000     -0.03049750     -3.86209000       6
H              -7.01772000      0.23084600      3.01617000       1
H              -7.28659000      2.32300000     -0.79104300       1
I              -2.90335000     -7.10738000     -0.61527700      53
H              -3.79335000      6.35624000      2.13622000       1
N              -3.19243000      6.88254000      1.46709000       7
C               6.67983000     -3.28407000      2.19044000       6
I               3.63726000     -3.16137000      6.09221000      53
P              -2.70049000     -1.66806000      7.11560000      15
H              -6.37168000      4.50552000     -0.28270000       1
H              -1.60700000      7.12172000      2.83418000       1
H              -5.94797000      0.95069300      5.05707000       1
I               6.41928000      0.23632100      4.54057000      53
C              -2.27549000      3.68067000      6.57922000       6
H               6.18380000     -4.87840000      0.89264400       1
H               7.30241000     -2.77497000      1.45202000       1
I              -0.10576000     -7.40747000      2.88178000      53
I              -7.21773000      0.09029810     -3.33607000      53
I               7.96004000     -0.03400580      0.29309900      53
C               1.16876000     -7.81526000     -1.21896000       6
H               0.08153860     -7.91077000     -1.25853000       1
I              -5.32560000      4.16570000     -4.34910000      53
I               1.74835000      7.60983000      1.95072000      53
H               1.56999000     -7.62680000     -2.21662000       1
H              -1.75563000      4.63127000      6.45662000       1
H               7.11293000      0.92010500     -3.98469000       1
I              -7.21005000     -3.42841000      1.95072000      53
I               4.28004000      0.52228300     -7.01815000      53
I               1.77360000      3.80147000      7.10525000      53
H               7.31063000     -0.85183500     -3.79943000       1
C              -2.22164000      7.75417000      2.19044000       6
H              -3.79499000      7.41935000      0.81319500       1
H              -7.33148000      3.41144000     -2.21662000       1
H               1.85084000     -3.48032000     -7.42514000       1
I              -0.09549970     -0.20073400      8.41553000      53
H              -6.57675000     -0.72135100      5.22852000       1
I              -4.64990000      0.52228300     -7.01815000      53
H               5.13659000      6.35624000      2.13622000       1
C              -7.73272000      3.22298000     -1.21896000       6
H              -1.66839000      3.41056000     -7.60713000       1
H              -6.00935000     -2.76047000     -5.38425000       1
N              -7.60749000      0.48200500      3.83810000       7
H              -1.59906000      8.26327000      1.45202000       1
C              -6.84491000      0.32960200      5.11299000       6
N              -7.39132000      4.38214000     -0.34501800       7
I              -5.29268000     -3.16137000      6.09221000      53
H               2.32027000      6.60572000     -5.21280000       1
H               7.29447000     -3.91652000      2.83418000       1
I               4.31296000     -6.80479000      3.42316000      53
H               6.21226000      6.15984000      0.89264400       1
P               6.16807000     -5.37922000     -3.32572000      15
H              -7.90503000      1.47216000      3.69493000       1
I               3.57588000     -6.87254000     -4.34910000      53
H              -7.78532000      4.24458000      0.61092500       1
H               1.61488000     -8.71524000     -0.79104300       1
I              -4.61698000     -6.80479000      3.42316000      53
I              -0.87435100     -7.52093000     -4.70979000      53
H               5.95758000      3.51433000      5.75634000       1
P               6.19653000      5.65902000     -3.32572000      15
H               5.13495000      7.41935000      0.81319500       1
N               5.73751000      6.88254000      1.46709000       7
P              -2.89060000     -1.67988000     -8.50270000      15
H              -6.40014000     -6.53272000     -0.28270000       1
H              -3.55099000      2.82240000      8.00555000       1
I               4.35913000      7.91845000     -1.74063000      53
N              -3.05202000      3.72699000      7.85342000       7
H               1.63137000     -3.91563000      8.22469000       1
I              -0.78450500      7.22848000      5.73152000      53
H              -1.78409000     -6.40697000      6.45662000       1
H               1.41414000      7.98162000     -4.50402000       1
H              -8.46557000     -0.09287040      3.84577000       1
H              -7.54426000     -3.05662000     -4.50402000       1
I              -4.57080000      7.91845000     -1.74063000      53
I               6.02659000     -7.10738000     -0.61527700      53
I               6.35790000     -3.47485000     -5.90074000      53
H              -2.78163000      8.47866000      2.78605000       1
C              -6.90630000     -3.38157000     -5.32832000       6
H              -8.81994000      3.12747000     -1.25853000       1
H              -7.81458000      5.24838000     -0.74654400       1
H              -2.84302000      4.76750000     -7.65527000       1
C              -2.28303000      4.04301000     -8.25087000       6
I               1.68696000      3.89866000     -8.49059000      53
P              -7.19305000      2.08591000     -5.85507000      15
H              -3.85473000      2.64507000     -8.30509000       1
H              -6.63813000     -4.43252000     -5.21280000       1
C               2.05210000      7.65667000     -5.32832000       6
P               1.66994000      9.39307000     -0.67550100      15
H              -7.48287000      0.65454400      5.93729000       1
P               6.22945000     -1.66806000      7.11560000      15
P              -2.85768000     -9.00695000      1.93862000      15
H               9.03994000      3.12747000     -1.25853000       1
I              -5.35406000     -6.87254000     -4.34910000      53
I               4.39205000      0.59138200      8.70068000      53
H              -7.84305000     -5.78986000     -0.74654400       1
H              -3.74517000      4.48932000      7.84738000       1
H              -2.41341000      3.84768000      8.66975000       1
H               0.43144800      7.23420000     -6.59554000       1
I               8.77305000     -3.91190000     -2.02578000      53
I              -4.53788000      0.59138200      8.70068000      53
I              -9.89984000     -0.03400580      0.29309900      53
H               1.08324000      0.53340900     -9.83039000       1
I              -2.54358000      7.56339000     -5.90074000      53
H              -3.00082000     -7.52391000      5.75634000       1
N              -7.41978000     -6.65610000     -0.34501800       7
H               1.14827000     -2.07869000      9.69477000       1
P              -7.16013000     -5.24116000      4.58625000      15
I               8.85264000      3.63077000      2.88178000      53
I               8.08405000      3.51731000     -4.70979000      53
H               5.37895000      2.82240000      8.00555000       1
C               6.65445000      3.68067000      6.57922000       6
N              -3.25382000      3.17137000     -8.97422000       7
H               5.07521000      2.64507000     -8.30509000       1
I              -9.08682000     -3.91190000     -2.02578000      53
H               0.14292200     -4.19960000      9.18278000       1
P               1.70286000      2.06600000      9.76581000      15
I              -9.00724000      3.63077000      2.88178000      53
