200
cutoff_factor=1.20000000 nneightol=1.20000000 Lattice="28.72732000       0.00000000       0.00000000       0.00000000      27.05450000       0.00000000       0.00000000       0.00000000      29.56515000" Properties=species:S:1:pos:R:3:Z:I:1
I               0.47089100     -1.52288000      0.18543100      53
P               2.25458000      1.15485000     -0.00209520      15
H              -2.07050000      1.30601000     -1.77830000       1
I              -0.28662800      3.07824000      0.08690000      53
H              -1.04625000      1.04000000      2.75552000       1
H              -2.56196000      1.39465000      1.86281000       1
H               1.53399000     -2.78721000     -1.75688000       1
H              -0.54558900      0.71686000     -3.58716000       1
C              -2.07904000      1.38516000      2.84263000       6
H              -1.71097000     -0.49107800     -3.38426000       1
I               2.04668000      1.06172000     -3.20717000      53
H               2.20057000     -2.13215000      2.49459000       1
C              -2.37175000      1.43057000     -2.82077000       6
P              -2.21099000     -3.32608000      0.00148277      15
N              -1.56137000      0.49885500     -3.66116000       7
I              -4.02211000     -0.71173500     -0.08703000      53
I               2.32556000      1.08320000      3.21480000      53
H              -2.79816000     -0.52386800      3.34201000       1
H              -2.18043000      2.45289000     -3.15470000       1
H              -2.11323000      2.37911000      3.29455000       1
N               1.86510000     -3.48525000     -2.45717000       7
H              -3.42739000      1.17846000     -2.94478000       1
N              -2.81943000      0.44050500      3.72503000       7
I               4.83331000     -0.71173500     -0.08703000      53
I              -1.91251000     -3.20069000     -3.20253000      53
N               2.60837000     -2.83879000      3.13576000       7
H               1.02651000     -3.92971000     -2.86538000       1
H               2.12204000     -2.06866000     -3.99843000       1
H              -1.83549000      0.58136200     -4.66054000       1
H               2.41678000     -4.18726000     -1.91825000       1
I              -2.53327000     -3.23383000      3.19653000      53
H               0.75392800     -3.75940000      3.53839000       1
H               3.58215000     -2.38872000     -3.00781000       1
H               1.68489000     -4.47708000      2.18198000       1
C               2.71501000     -2.83656000     -3.49857000       6
H              -2.38187000      0.40527400      4.67124000       1
H               1.73631000      4.49835000      2.18198000       1
C               1.74543000     -4.05373000      3.18704000       6
H              -3.80653000      0.74344400      3.83351000       1
H               2.70923000     -2.42066000      4.08595000       1
H               3.56521000     -3.08328000      2.81848000       1
I               4.09611000      3.78228000     -0.19486900      53
H               2.46820000      4.78817000     -1.91825000       1
H               1.07793000      5.04572000     -2.86538000       1
I              -0.33804700     -5.89718000      0.08690000      53
P              -2.15957000      5.64934000      0.00148277      15
I              -4.75931000      3.78228000     -0.19486900      53
C               1.79685000      4.92170000      3.18704000       6
H               2.24993000      4.20625000      3.87695000       1
H               5.42803000      1.17846000     -2.94478000       1
N               1.91652000      5.49018000     -2.45717000       7
H               3.03054000     -3.60075000     -4.20979000       1
H               0.80534700      5.21603000      3.53839000       1
H               5.04889000      0.74344400      3.83351000       1
I              -0.67167800     -0.67935800      6.42180000      53
H              -5.27327000     -2.38872000     -3.00781000       1
H               2.19851000     -4.76917000      3.87695000       1
I               4.04469000     -5.19315000     -0.19486900      53
H               1.58541000      6.18822000     -1.75688000       1
I               0.58721700     -1.54012000     -6.48467000      53
P              -6.60084000      1.15485000     -0.00209520      15
H               6.29346000      1.39465000      1.86281000       1
H              -5.29021000     -3.08328000      2.81848000       1
P               2.02031000      1.07546000      6.44244000      15
I              -1.86109000      5.77474000     -3.20253000      53
P               2.38481000      1.12746000     -6.41022000      15
H               6.05726000     -0.52386800      3.34201000       1
I              -2.48185000      5.74159000      3.19653000      53
I              -4.81073000     -5.19315000     -0.19486900      53
N               6.03599000      0.44050500      3.72503000       7
I              -0.33759500      2.90281000     -6.48774000      53
H               6.78492000      1.30601000     -1.77830000       1
C               6.48367000      1.43057000     -2.82077000       6
I              -6.52986000      1.08320000      3.21480000      53
N               2.65978000      6.13663000      3.13576000       7
H              -6.65485000     -2.13215000      2.49459000       1
P               6.64443000     -3.32608000      0.00148277      15
H               3.61663000      5.89215000      2.81848000       1
I              -3.83615000     -0.65764100     -6.37361000      53
I               0.52231000      7.45254000      0.18543100      53
C               6.77638000      1.38516000      2.84263000       6
H               3.08196000      5.37467000     -4.20979000       1
I               0.27295300      3.77936000      6.48075000      53
P              -2.08879000     -3.36154000     -6.41193000      15
N              -6.24705000     -2.83879000      3.13576000       7
I               3.72009000     -1.63562000      6.36663000      53
H              -2.23184000     -6.52254000     -3.15470000       1
C               2.76643000      6.13887000     -3.49857000       6
I              -6.80874000      1.06172000     -3.20717000      53
C              -6.14041000     -2.83656000     -3.49857000       6
H               2.25199000      6.84327000      2.49459000       1
P              -2.41292000     -3.41096000      6.44415000      15
H              -2.16465000     -6.59632000      3.29455000       1
H              -6.14618000     -2.42066000      4.08595000       1
H               6.67499000      2.45289000     -3.15470000       1
I               6.32215000     -3.23383000      3.19653000      53
H               6.74219000      2.37911000      3.29455000       1
H              -6.43864000     -4.18726000     -1.91825000       1
H               7.14445000     -0.49107800     -3.38426000       1
H               6.47355000      0.40527400      4.67124000       1
H              -7.32143000     -2.78721000     -1.75688000       1
H              -5.82488000     -3.60075000     -4.20979000       1
H              -6.73338000     -2.06866000     -3.99843000       1
H               3.63357000      6.58671000     -3.00781000       1
P               2.20316000     -7.82058000     -0.00209520      15
I               5.01927000     -0.65764100     -6.37361000      53
I              -4.15910000      2.89688000      6.36969000      53
H              -2.12192000     -7.66941000     -1.77830000       1
N               7.29405000      0.49885500     -3.66116000       7
N              -6.99032000     -3.48525000     -2.45717000       7
H               2.76065000      6.55477000      4.08595000       1
H              -6.38722000      4.78817000     -1.91825000       1
H              -2.61338000     -7.58077000      1.86281000       1
H               2.17346000      6.90677000     -3.99843000       1
I               6.94291000     -3.20069000     -3.20253000      53
I               0.22153400     -5.19607000      6.48075000      53
I              -5.13533000     -1.63562000      6.36663000      53
H               7.80917000      1.04000000      2.75552000       1
H              -5.23879000      5.89215000      2.81848000       1
C              -2.13046000     -7.59027000      2.84263000       6
C              -2.42317000     -7.54485000     -2.82077000       6
I               4.69632000      2.89688000      6.36969000      53
H               7.01993000      0.58136200     -4.66054000       1
H              -1.09767000     -7.93543000      2.75552000       1
I              -8.38453000     -1.52288000      0.18543100      53
I               4.12606000      3.85907000     -6.43256000      53
H              -7.11911000      4.49835000      2.18198000       1
H              -7.17053000     -4.47708000      2.18198000       1
H              -6.60549000      4.20625000      3.87695000       1
P               6.69585000      5.64934000      0.00148277      15
P              -2.03737000      5.61388000     -6.41193000      15
I               1.99526000     -7.91371000     -3.20717000      53
C              -7.10999000     -4.05373000      3.18704000       6
I               2.27414000     -7.89223000      3.21480000      53
P              -2.36151000      5.56446000      6.44415000      15
H              -1.71578000      0.83624500      8.64458000       1
I              -4.72936000      3.85907000     -6.43256000      53
I              -0.38901400     -6.07262000     -6.48774000      53
H              -5.22185000      6.58671000     -3.00781000       1
H              -5.77346000      5.37467000     -4.20979000       1
H              -0.59700800     -8.25857000     -3.58716000       1
H              -3.47881000     -7.79697000     -2.94478000       1
H              -6.65691000     -4.76917000      3.87695000       1
H               8.30983000      0.71686000     -3.58716000       1
I               8.56879000      3.07824000      0.08690000      53
H              -1.34845000      2.11777000     -8.76841000       1
I               6.37357000      5.74159000      3.19653000      53
I              -3.97069000      8.26369000     -0.08703000      53
H              -1.85917000     -0.23074700     -8.97741000       1
I               4.07464000     -5.11636000     -6.43256000      53
C              -7.05857000      4.92170000      3.18704000       6
P              -6.47061000      1.12746000     -6.41022000      15
N              -6.93890000      5.49018000     -2.45717000       7
H              -7.82891000     -3.92971000     -2.86538000       1
N              -6.19563000      6.13663000      3.13576000       7
H              -1.65955000      8.48435000     -3.38426000       1
C              -6.08899000      6.13887000     -3.49857000       6
H               2.22219000     -3.95707000      8.19383000       1
N              -1.61279000     -8.47657000     -3.66116000       7
H               2.36445000     -4.03172000     -8.18312000       1
I               9.32631000     -1.52288000      0.18543100      53
P              -6.83511000      1.07546000      6.44244000      15
H              -2.74674000      8.45156000      3.34201000       1
I              -4.78078000     -5.11636000     -6.43256000      53
H              -2.62428000      2.36834000      8.85594000       1
I               4.88473000      8.26369000     -0.08703000      53
H              -8.10149000     -3.75940000      3.53839000       1
I               6.99432000      5.77474000     -3.20253000      53
I              -9.14205000      3.07824000      0.08690000      53
H              -7.77749000      5.04572000     -2.86538000       1
C              -2.03131000      1.60044000      9.35579000       6
H              -7.27001000      6.18822000     -1.75688000       1
P               6.44250000     -3.41096000      6.44415000      15
N              -2.87085000     -8.53492000      3.72503000       7
I              -4.21052000     -6.07854000      6.36969000      53
H              -1.88691000     -8.39406000     -4.66054000       1
H               0.93978600     -3.69356000     -9.02086000       1
H               6.62358000     -6.52254000     -3.15470000       1
H              -6.60343000      6.84327000      2.49459000       1
H              -6.09477000      6.55477000      4.08595000       1
H               2.41587000      4.94370000     -8.18312000       1
H              -3.85795000     -8.23198000      3.83351000       1
H               2.27361000      5.01836000      8.19383000       1
I               0.63863600      7.43531000     -6.48467000      53
P               6.76663000     -3.36154000     -6.41193000      15
H              -3.30375000      0.77902700     -9.31598000       1
H               5.37661000     -7.79697000     -2.94478000       1
C              -2.31225000      0.48469800     -9.66732000       6
I               4.64490000     -6.07854000      6.36969000      53
H               6.69077000     -6.59632000      3.29455000       1
N              -1.44932000      1.69963000     -9.71860000       7
I               2.19659000      1.23631000      9.65183000      53
H               6.24204000     -7.58077000      1.86281000       1
I               2.26447000      1.30459000     -9.65783000      53
H              -2.43329000     -8.57015000      4.67124000       1
H              -9.40101000      0.71686000     -3.58716000       1
H               1.87726000     -2.08554000      9.69966000       1
H              -1.16417000      2.04828000      9.84655000       1
H               2.63309000     -2.05789000     -9.55981000       1
N               1.92689000     -3.99649000     -9.12933000       7
