200
cutoff_factor=1.20000000 nneightol=1.20000000 Lattice="29.11880000       0.00000000       0.00000000       0.00000000      28.79060000       0.00000000       0.00000000       0.00000000      28.41179000" Properties=species:S:1:pos:R:3:Z:I:1
H              -1.09045000     -0.23812200     -1.47755000       1
H              -1.28315000      1.63947000      1.42043000       1
I               0.72963600      2.18640000     -1.08480000      53
I               1.52773000     -1.47165000      1.63567000      53
C              -1.35501000     -0.74599900     -2.40746000       6
H               0.51603700     -1.69437000     -2.60131000       1
H              -0.62783200     -2.60494000     -1.74723000       1
N              -0.49030000     -1.95488000     -2.54704000       7
I              -2.99971000     -0.86647300      1.03072000      53
P               3.31065000      0.70099400     -0.04257000      15
H              -1.17771000     -0.09245300     -3.26457000       1
C              -1.38485000      2.49764000      2.08822000       6
H              -2.39826000     -1.06881000     -2.38096000       1
H               0.50967400      2.21053000      2.95598000       1
H              -1.08587000      3.41516000      1.57643000       1
N              -0.48041800      2.29420000      3.26000000       7
H              -0.73641400      1.44096000      3.79437000       1
P              -1.15599000     -2.95747000      2.63721000      15
I               3.14449000     -1.23047000     -2.61459000      53
H              -0.74116200     -2.47596000     -3.40949000       1
H              -2.41116000      2.57987000      2.45283000       1
H               2.54579000     -3.63105000      0.77513200       1
I              -0.92563700     -4.69629000     -0.06914890      53
I              -3.67765000      2.77938000     -1.50032000      53
I               3.22031000      2.43379000      2.71845000      53
H              -0.52921100      3.11370000      3.89754000       1
P              -1.10966000      4.25964000     -2.59893000      15
I              -1.34524000     -0.89769300      5.13746000      53
N               2.95814000     -4.57972000      0.63574900       7
H               3.71543000     -1.42947000      3.79641000       1
H               3.67607000      0.20352100      4.15871000       1
H               3.20984000     -4.35703000     -1.44751000       1
P              -5.57001000      0.70099400     -0.04257000      15
H               2.17871000     -5.25222000      0.57130700       1
H               3.41364000      1.40517000     -4.37589000       1
H              -4.25899000     -3.87222000     -0.45390500       1
H               2.02686000     -1.00946000      5.47526000       1
H               2.08531000      2.42741000     -5.01898000       1
C               3.82373000     -4.60754000     -0.58057500       6
I               5.88095000     -0.86647300      1.03072000      53
N               3.90253000     -0.73539700      4.54404000       7
H               4.62168000     -3.87222000     -0.45390500       1
I              -1.28680000      2.53918000     -5.35678000      53
H               3.35397000      3.15425000     -3.97925000       1
I               5.20302000      2.77938000     -1.50032000      53
H               2.09658000      5.69865000      0.57130700       1
H               3.52376000     -4.76545000      1.49189000       1
C               3.14063000      2.39858000     -4.73845000       6
H              -3.96148000     -0.76879900      4.76502000       1
I              -1.00777000      6.25458000     -0.06914890      53
I              -5.73617000     -1.23047000     -2.61459000      53
H              -5.16524000     -1.42947000      3.79641000       1
I               0.63908800     -1.72844000     -6.32520000      53
C               3.08219000     -1.03829000      5.75579000       6
I               1.56334000     -5.22993000     -3.77141000      53
I               0.58064600     -5.16531000      4.16904000      53
I              -2.80769000     -4.42941000     -4.11273000      53
H              -5.20460000      0.20352100      4.15871000       1
I              -5.66036000      2.43379000      2.71845000      53
N              -4.97814000     -0.73539700      4.54404000       7
H               4.15933000      5.34116000     -0.68311100       1
I              -3.88237000     -4.37303000      3.57668000      53
C              -5.05693000     -4.60754000     -0.58057500       6
H               4.91919000     -0.76879900      4.76502000       1
P               3.42516000     -3.06057000     -5.22656000      15
H               6.48241000     -1.06881000     -2.38096000       1
I               1.48120000      5.72093000     -3.77141000      53
N               2.87601000      6.37115000      0.63574900       7
H               4.24147000     -5.60970000     -0.68311100       1
H              -5.46702000      1.40517000     -4.37589000       1
I               0.49850900      5.78556000      4.16904000      53
H              -4.72134000      5.34116000     -0.68311100       1
H               3.44162000      6.18542000      1.49189000       1
I               1.42276000      2.28406000      6.72283000      53
P              -1.02752000     -6.69123000     -2.59893000      15
H               3.35520000     -2.03170000      6.11835000       1
H              -5.67082000     -4.35703000     -1.44751000       1
H               3.29553000     -0.28261800      6.51499000       1
H              -4.63920000     -5.60970000     -0.68311100       1
H              -5.35690000     -4.76545000      1.49189000       1
H              -6.33488000     -3.63105000      0.77513200       1
H               6.46950000      2.57987000      2.45283000       1
C               3.74159000      6.34332000     -0.58057500       6
H              -3.90304000      2.66807000     -5.72922000       1
H               3.12770000      6.59383000     -1.44751000       1
H              -5.52670000      3.15425000     -3.97925000       1
N              -5.92252000     -4.57972000      0.63574900       7
I               4.99829000     -4.37303000      3.57668000      53
P               3.28458000      4.45342000      5.26768000      15
N               3.96097000      2.70147000     -5.95020000       7
I              -7.35293000     -1.47165000      1.63567000      53
I              -2.94827000      3.08458000      6.38151000      53
H               2.46365000      7.31982000      0.77513200       1
H              -1.00373000     -7.53571000      1.57643000       1
C              -5.74003000      2.39858000     -4.73845000       6
H               7.59752000      1.63947000      1.42043000       1
H               7.79021000     -0.23812200     -1.47755000       1
C               7.52565000     -0.74599900     -2.40746000       6
H              -0.38863200     -4.40029000     -6.59670000       1
H               3.77387000      2.00740000     -6.69782000       1
P              -1.09755000      0.47940600     -7.85703000      15
I              -3.82393000     -0.93615900     -6.91756000      53
P              -1.16810000      0.82276700      7.89531000      15
H               4.97763000      2.66807000     -5.72922000       1
H              -1.23615000     -3.52932000      7.22966000       1
P              -5.45551000     -3.06057000     -5.22656000      15
C               7.49582000      2.49764000      2.08822000       6
N              -4.91970000      2.70147000     -5.95020000       7
C              -5.13907000      6.34332000     -0.58057500       6
H               3.73451000      3.64039000     -6.33553000       1
I              -2.88983000      6.52145000     -4.11273000      53
C              -5.79848000     -1.03829000      5.75579000       6
H              -0.67797300      4.87783000     -6.69987000       1
H              -4.34112000      7.07864000     -0.45390500       1
H               7.70295000     -0.09245300     -3.26457000       1
H              -5.43904000      6.18542000      1.49189000       1
H               4.53954000      7.07864000     -0.45390500       1
I              -3.96451000      6.57783000      3.57668000      53
H              -5.52547000     -2.03170000      6.11835000       1
P              -1.23813000      7.99340000      2.63721000      15
I              -8.15103000      2.18640000     -1.08480000      53
H              -6.70195000     -5.25222000      0.57130700       1
H              -0.70997000      8.34592000     -1.74723000       1
I               6.07298000     -4.42941000     -4.11273000      53
H              -5.58514000     -0.28261800      6.51499000       1
I               5.05674000     -0.93615900     -6.91756000      53
H               7.79480000      3.41516000      1.57643000       1
H              -5.10680000      2.00740000     -6.69782000       1
P               7.72468000     -2.95747000      2.63721000      15
H              -0.88174100      5.03803000      7.08474000       1
H              -0.44707400     -7.83716000      3.89754000       1
N              -6.00466000      6.37115000      0.63574900       7
H              -6.79536000      2.42741000     -5.01898000       1
C              -1.30271000     -8.45323000      2.08822000       6
H               8.25283000     -2.60494000     -1.74723000       1
H              -6.85380000     -1.00946000      5.47526000       1
I               0.81177300     -8.76446000     -1.08480000      53
H              -5.75296000      6.59383000     -1.44751000       1
H              -6.78409000      5.69865000      0.57130700       1
P              -5.59609000      4.45342000      5.26768000      15
H              -8.36463000     -1.69437000     -2.60131000       1
N              -0.33983900     -5.21980000     -7.23424000       7
H              -5.14615000      3.64039000     -6.33553000       1
I               4.91616000      6.57783000      3.57668000      53
N               8.39036000     -1.95488000     -2.54704000       7
P               3.36671000     -6.49744000      5.26768000      15
H              -2.32902000     -8.37099000      2.45283000       1
I              -3.59551000     -8.17149000     -1.50032000      53
H              -0.59583500     -6.07303000     -6.69987000       1
H               8.14425000      1.44096000      3.79437000       1
H              -8.37099000      2.21053000      2.95598000       1
I               7.53542000     -0.89769300      5.13746000      53
H               8.13950000     -2.47596000     -3.40949000       1
H              -0.82329900      8.47490000     -3.40949000       1
I               1.58618000      1.96522000     -8.85857000      53
C              -1.41346000     -4.18287000      8.08678000       6
P               7.77100000      4.25964000     -2.59893000      15
I               7.95503000     -4.69629000     -0.06914890      53
N              -0.42197600      5.73107000     -7.23424000       7
H               0.65025400     -5.30347000     -7.53826000       1
I               5.93240000      3.08458000      6.38151000      53
H               0.59181200     -8.74034000      2.95598000       1
N              -0.39828000     -8.65667000      3.26000000       7
H              -0.79960300     -5.91283000      7.08474000       1
N               8.40025000      2.29420000      3.26000000       7
H              -0.47077000      6.55058000     -6.59670000       1
N              -0.57243800      8.99599000     -2.54704000       7
H               3.43610000     -7.79661000     -3.97925000       1
H               0.45759500     -5.13124000      7.89293000       1
H               0.56811600      5.64740000     -7.53826000       1
H              -1.20101000     -9.31139000      1.42043000       1
I               0.67119400     -1.25047000      9.40944000      53
I               3.30244000     -8.51707000      2.71845000      53
H              -2.45670000     -4.50568000      8.11328000       1
N              -0.54874200     -5.39175000      7.94720000       7
H               0.43390000      9.25649000     -2.60131000       1
I               7.59387000      2.53918000     -5.35678000      53
I               3.08605000     -4.66734000      7.87965000      53
H              -2.27058000     -4.93412000     -8.04141000       1
N              -0.63087900      5.55912000      7.94720000       7
I               1.44560000      9.47921000      1.63567000      53
H               8.35145000      3.11370000      3.89754000       1
I              -7.31733000     -5.22993000     -3.77141000      53
I              -3.73609000     -0.65749200      8.99392000      53
I               5.99084000      6.52145000     -4.11273000      53
H              -6.41702000      7.31982000      0.77513200       1
H               3.58220000     -1.32858000     -9.00235000       1
H              -1.14889000     -3.67499000      9.01669000       1
H               0.37545800      5.81962000      7.89293000       1
I               5.28516000     -8.17149000     -1.50032000      53
H              -0.94528600     -4.09884000     -8.91781000       1
C              -1.24427000     -5.01635000     -8.40602000       6
I               3.36089000     -5.08020000     -7.77579000      53
H               9.39670000     -1.69437000     -2.60131000       1
N              -9.37097000     -1.95488000     -2.54704000       7
I               9.61030000      2.18640000     -1.08480000      53
H              -9.50850000     -2.60494000     -1.74723000       1
P              -5.51395000     -6.49744000      5.26768000      15
P               3.34302000      7.89029000     -5.22656000      15
I              -1.20466000     -8.41169000     -5.35678000      53
