200
cutoff_factor=1.20000000 nneightol=1.20000000 Lattice="28.67717000       0.00000000       0.00000000       0.00000000      28.51608000       0.00000000       0.00000000       0.00000000      28.70254000" Properties=species:S:1:pos:R:3:Z:I:1
H               1.50425000     -0.95824900      1.34911000       1
I              -1.46906000      1.72425000      0.08860260      53
H               0.09667370     -1.80203000      1.78562000       1
N               1.12645000     -1.85527000      1.71838000       7
H               1.13163000     -2.78836000     -0.17165100       1
I               2.91775000      0.84848000     -0.11960800      53
I              -0.70919700     -2.00081000     -2.44374000      53
H               1.82670000      1.23986000     -2.44700000       1
C               1.54340000     -2.97028000      0.82290900       6
P              -3.27954000     -0.48779000     -1.26928000      15
P               1.10058000      3.17385000      1.31094000      15
H               1.52867000     -2.00865000      2.66944000       1
H              -0.33757700      1.24668000     -3.56241000       1
I              -3.07821000     -2.24016000      1.33947000      53
H               2.63488000     -2.99262000      0.78494900       1
N               1.68491000      1.79446000     -3.31782000       7
H               1.15741000     -3.90608000      1.23199000       1
H               1.47814000      2.76772000     -3.01315000       1
C               0.57970700      1.24552000     -4.15551000       6
H              -3.06152000      1.68104000      2.64565000       1
I               1.29120000      1.41320000      3.95149000      53
H               0.84152000      0.22779600     -4.45311000       1
H              -2.07682000      1.17718000      4.05983000       1
H              -3.35076000      0.08749490      3.41938000       1
C              -3.06001000      1.12690000      3.58654000       6
H               2.59042000      1.80917000     -3.82520000       1
H              -1.90831000      4.68201000     -0.45370800       1
H              -2.37773000     -4.58796000     -0.36046300       1
I               1.24087000      4.85884000     -1.44842000      53
H               0.46861800      1.88580000     -5.03252000       1
I               3.80270000     -2.81988000     -2.69196000      53
I              -3.66350000      1.24770000     -4.02723000      53
P               5.65611000     -0.48779000     -1.26928000      15
P               1.07617000     -4.13703000     -3.96368000      15
H               3.91933000      1.73378000      4.09525000       1
H              -1.95812000     -5.31767000     -1.94311000       1
I              -0.75548800      5.28266000      2.76964000      53
H              -3.91025000      4.28728000     -1.74827000       1
I              -1.50521000     -2.06566000      5.50012000      53
I              -6.01790000      0.84848000     -0.11960800      53
C              -2.41618000     -5.49390000     -0.96785900       6
C              -2.40733000      5.50567000     -0.96785900       6
I               2.91392000     -2.60251000      4.81424000      53
N              -4.05909000      1.75502000      4.50097000       7
H              -1.94927000      5.68190000     -1.94311000       1
I              -0.76434200     -5.71691000      2.76964000      53
I               5.85744000     -2.24016000      1.33947000      53
I               1.23202000     -6.14073000     -1.44842000      53
I              -5.13295000     -2.81988000     -2.69196000      53
I               3.75761000      4.79121000      2.16066000      53
N              -3.83381000      5.13652000     -1.17656000       7
H               5.58489000      0.08749490      3.41938000       1
P              -3.32773000     -4.11342000      3.87277000      15
H              -4.28880000      4.97307000     -0.25055900       1
P               1.09010000     -0.51237800      6.48752000      15
H              -1.91716000     -6.31757000     -0.45370800       1
H               5.87413000      1.68104000      2.64565000       1
H              -3.83358000      2.74696000      4.70900000       1
H              -5.01632000      1.73378000      4.09525000       1
I               5.27215000      1.24770000     -4.02723000      53
H               4.64685000      4.97307000     -0.25055900       1
H               5.02540000      4.28728000     -1.74827000       1
H              -2.36888000      6.41161000     -0.36046300       1
N               4.87656000      1.75502000      4.50097000       7
H              -4.33990000     -5.07760000     -1.65056000       1
H              -4.11535000      1.25978000      5.41635000       1
H              -4.12929000     -2.36487000     -5.03485000       1
H              -3.84751000     -0.87768900     -5.74220000       1
C               5.87563000      1.12690000      3.58654000       6
I               1.27726000     -2.21145000     -6.49971000      53
H              -6.30077000     -2.99262000      0.78494900       1
H               4.59575000     -5.07760000     -1.65056000       1
N              -3.84266000     -5.86305000     -1.17656000       7
H              -2.09076000     -2.44746000     -6.39136000       1
H               0.85545900      3.85244000      5.99809000       1
H               1.16627000      7.09350000      1.23199000       1
N               5.10184000      5.13652000     -1.17656000       7
H               4.80636000     -2.36487000     -5.03485000       1
H               4.82030000      1.25978000      5.41635000       1
I              -5.17803000      4.79121000      2.16066000      53
H              -4.29766000     -6.02650000     -0.25055900       1
I              -1.51029000      5.30927000     -4.95107000      53
N              -4.07303000     -1.86962000     -5.95023000       7
H               5.10207000      2.74696000      4.70900000       1
H              -4.33104000      5.92197000     -1.65056000       1
I               3.74876000     -6.20836000      2.16066000      53
H               4.63799000     -6.02650000     -0.25055900       1
H              -7.43140000     -0.95824900      1.34911000       1
H              -7.10895000      1.23986000     -2.44700000       1
H              -6.34523000      1.80917000     -3.82520000       1
I               7.46658000      1.72425000      0.08860260      53
H               4.60461000      5.92197000     -1.65056000       1
I              -1.51915000     -5.69031000     -4.95107000      53
H               3.90539000     -1.89086000     -6.35595000       1
H               5.08814000     -0.87768900     -5.74220000       1
H               0.47370300     -5.48913000      5.41867000       1
H               0.48255600      5.51044000      5.41867000       1
N               5.09298000     -5.86305000     -1.17656000       7
I              -0.76942600      1.65801000     -7.68155000      53
N               4.86262000     -1.86962000     -5.95023000       7
C              -3.07395000     -2.49775000     -6.86466000       6
I               2.90884000      4.77242000     -5.63695000      53
P               5.60792000     -4.11342000      3.87277000      15
H              -3.91911000     -6.71229000     -1.74827000       1
C               0.59364500      4.87017000      6.29569000       6
P               1.08502000      6.86255000     -3.96368000      15
C              -7.39225000     -2.97028000      0.82290900       6
P               1.09172000     -7.82573000      1.31094000      15
H               6.55792000     -4.58796000     -0.36046300       1
H               6.85883000      1.17718000      4.05983000       1
P              -3.33281000      3.26151000     -6.57842000      15
H              -7.40698000     -2.00865000      2.66944000       1
I              -6.02173000     -2.60251000      4.81424000      53
N              -7.25074000      1.79446000     -3.31782000       7
I              -0.69525800      1.62384000      8.00746000      53
N              -7.80920000     -1.85527000      1.71838000       7
C               1.55225000      8.02929000      0.82290900       6
H              -7.80402000     -2.78836000     -0.17165100       1
H               1.14048000      8.21121000     -0.17165100       1
H              -5.03026000     -1.89086000     -6.35595000       1
I              -5.18689000     -6.20836000      2.16066000      53
H              -0.32363900      4.87133000      6.88879000       1
H               7.02734000      4.68201000     -0.45370800       1
H               2.64373000      8.00696000      0.78494900       1
H              -7.45751000      2.76772000     -3.01315000       1
P              -7.83507000      3.17385000      1.31094000      15
H               5.01654000     -6.71229000     -1.74827000       1
H              -3.36470000     -3.53715000     -7.03182000       1
P              -3.31887000      6.88615000      3.87277000      15
C               6.51947000     -5.49390000     -0.96785900       6
C               6.52832000      5.50567000     -0.96785900       6
H              -3.07546000     -1.94361000     -7.80555000       1
I               3.81664000      0.80477200      7.75923000      53
I              -7.64445000      1.41320000      3.95149000      53
H              -7.77824000     -3.90608000      1.23199000       1
C               0.58479100     -6.12940000      6.29569000       6
I               8.22645000     -2.00081000     -2.44374000      53
I              -3.64956000      4.87235000      6.42397000      53
H               1.48322000     -4.60721000      7.43804000       1
I               2.89998000     -6.22716000     -5.63695000      53
H               1.46928000     -8.23185000     -3.01315000       1
H              -1.94418000     -1.69303000      8.50809000       1
H               2.60436000      5.43381000      6.62599000       1
H               6.97753000     -5.31767000     -1.94311000       1
H               2.59551000     -5.56576000      6.62599000       1
N               1.69885000      5.41911000      7.13338000       7
I               3.74368000      1.16657000     -8.29053000      53
H               6.56677000      6.41161000     -0.36046300       1
H              -8.83897000     -1.80203000      1.78562000       1
H               6.98638000      5.68190000     -1.94311000       1
N               1.69000000     -5.58047000      7.13338000       7
I              -7.69478000      4.85884000     -1.44842000      53
P               1.08664000     -0.45080000     -9.14026000      15
H              -0.33249300     -6.12824000      6.88879000       1
P               5.60284000      3.26151000     -6.57842000      15
H              -8.09413000      0.22779600     -4.45311000       1
I              -5.11901000      0.80477200      7.75923000      53
I              -0.70034300      8.99876000     -2.44374000      53
C               5.86170000     -2.49775000     -6.86466000       6
H               0.84660500     -7.14713000      5.99809000       1
H               0.10552800      9.19754000      1.78562000       1
N               1.13531000      9.14431000      1.71838000       7
I              -3.06936000      8.75942000      1.33947000      53
H               9.03232000     -1.80203000      1.78562000       1
H               8.59807000      1.24668000     -3.56241000       1
I              -1.47792000     -9.27532000      0.08860260      53
C              -8.35594000      1.24552000     -4.15551000       6
I               3.81155000      8.17970000     -2.69196000      53
I               1.24596000     -2.51608000      9.00277000      53
H               7.01849000     -6.31757000     -0.45370800       1
I               7.43044000     -2.06566000      5.50012000      53
H               1.53753000      8.99092000      2.66944000       1
I              -6.02681000      4.77242000     -5.63695000      53
H               1.84064000      4.86451000      8.00420000       1
H               1.52359000      5.36627000     -7.78176000       1
I              -3.65841000     -6.12723000      6.42397000      53
I               5.28609000      4.87235000      6.42397000      53
H               5.57095000     -3.53715000     -7.03182000       1
H               6.84489000     -2.44746000     -6.39136000       1
P               5.61677000      6.88615000      3.87277000      15
H               1.51473000     -5.63330000     -7.78176000       1
P              -7.85948000     -4.13703000     -3.96368000      15
I              -5.19197000      1.16657000     -8.29053000      53
H              -4.32596000     -1.45296000      8.80063000       1
H               1.15233000      3.46885000     -9.21921000       1
H               1.49208000      6.39237000      7.43804000       1
N               1.67606000     -9.20511000     -3.31782000       7
H               5.86019000     -1.94361000     -7.80555000       1
I              -7.70363000     -6.14073000     -1.44842000      53
C              -2.40224000     -1.86925000      9.48333000       6
H              -9.27323000      1.24668000     -3.56241000       1
I              -5.12409000      8.17970000     -2.69196000      53
H              -3.90517000     -3.08764000      8.70292000       1
H              -8.46703000      1.88580000     -5.03252000       1
H               4.60969000     -1.45296000      8.80063000       1
I               2.92278000      8.39706000      4.81424000      53
I               8.18016000      5.28266000      2.76964000      53
I              -9.64485000     -2.00081000     -2.44374000      53
H              -3.07037000     -9.31854000      2.64565000       1
P              -7.84554000     -0.51237800      6.48752000      15
