200
cutoff_factor=1.20000000 nneightol=1.20000000 Lattice="29.02745000       0.00000000       0.00000000       0.00000000      28.45849000       0.00000000       0.00000000       0.00000000      27.60298000" Properties=species:S:1:pos:R:3:Z:I:1
P               0.67975600     -0.59497500      1.60936000      15
I               1.21151000     -0.41333200     -1.61410000      53
I              -1.80973000      1.44828000      1.13691000      53
H               0.69232800      2.18670000     -1.56277000       1
H              -0.54723000      2.85988000     -0.68739200       1
H              -3.28852000     -0.45501100     -0.49737900       1
N               0.03772280      2.99314000     -1.53861000       7
H              -2.53251000     -1.65465000     -1.59796000       1
I              -1.28945000     -3.11144000      1.22665000      53
H              -0.58277600      2.91063000     -2.36435000       1
I               2.62611000      1.90212000      1.98592000      53
C              -3.47435000     -1.23560000     -1.23642000       6
H               0.05024820     -3.94874000     -1.48092000       1
H               3.76272000     -0.24515200     -2.07677000       1
I               3.16764000     -2.55771000      2.01633000      53
H               1.38766000      4.32276000     -0.60683300       1
H              -3.62696000      0.11497800     -2.84489000       1
C               0.76490300      4.29750000     -1.50403000       6
H              -4.10315000     -2.01947000     -0.80916100       1
H              -3.64339000     -0.03359440      3.16511000       1
I              -0.04060990     -0.70714600      4.79124000      53
P               0.56992900     -0.57583200     -4.79207000      15
N              -4.19742000     -0.62864900     -2.38981000       7
I              -1.92484000      1.40780000     -4.27644000      53
H               1.40968000     -4.72959000     -0.60683300       1
H              -2.48471000     -0.24117500      4.37050000       1
C               0.78692700     -4.75485000     -1.50403000       6
H               1.38321000      4.37237000     -2.40142000       1
H               4.77302000     -2.01947000     -0.80916100       1
H               0.96741900      3.69137000      3.60186000       1
N               4.67875000     -0.62864900     -2.38981000       7
H               0.02822400      5.10360000     -1.48092000       1
N              -3.45077000      0.09964600      4.17269000       7
H               1.40524000     -4.67998000     -2.40142000       1
H               0.28817900     -3.75245000      3.96419000       1
H              -5.11345000     -0.24515200     -2.07677000       1
H              -4.41851000     -1.34505000     -3.10896000       1
H               4.45766000     -1.34505000     -3.10896000       1
I              -1.27186000     -3.15969000     -4.44932000      53
H               5.58765000     -0.45501100     -0.49737900       1
H              -3.46085000      1.12565000      4.35267000       1
C               5.40182000     -1.23560000     -1.23642000       6
P              -3.84121000      3.96756000      1.56633000      15
H               3.42128000     -0.18737300      4.74754000       1
H               5.24922000      0.11497800     -2.84489000       1
I               2.49066000      1.99263000     -5.18635000      53
H               5.23278000     -0.03359440      3.16511000       1
I              -4.33247000      4.06090000     -1.60829000      53
I              -1.31148000      5.94090000      1.22665000      53
N               0.05974700     -6.05921000     -1.53861000       7
H              -0.52520600     -6.19247000     -0.68739200       1
I               4.54370000      4.06090000     -1.60829000      53
C               0.87328300      4.47884000      4.35134000       6
C               0.89530700     -4.57351000      4.35134000       6
H              -0.75766000      3.56251000      5.28482000       1
I               3.12626000     -2.53483000     -5.08815000      53
H               0.98944300     -5.36098000      3.60186000       1
P              -3.81919000     -5.08479000      1.56633000      15
H               1.88031000     -4.21129000      4.65441000       1
I              -5.70853000     -2.55771000      2.01633000      53
P               5.03496000      3.96756000      1.56633000      15
H              -0.56075200     -6.14172000     -2.36435000       1
H               0.26615500      5.29990000      3.96419000       1
C               4.40447000     -0.58750100      5.00568000       6
H              -4.42723000     -1.65839000      4.79486000       1
C              -4.47170000     -0.58750100      5.00568000       6
H               6.34366000     -1.65465000     -1.59796000       1
H               4.44894000     -1.65839000      4.79486000       1
I              -4.31044000     -4.99145000     -1.60829000      53
N               0.18793900      3.90974000      5.54827000       7
H               0.75039600      3.14697000      5.98228000       1
I              -6.25007000      1.90212000      1.98592000      53
N               5.42540000      0.09964600      4.17269000       7
I              -3.29212000      3.61730000      4.81247000      53
I               4.56573000     -4.99145000     -1.60829000      53
H               1.85829000      4.84106000      4.65441000       1
H               5.41532000      1.12565000      4.35267000       1
H               0.71435200     -6.86565000     -1.56277000       1
H              -5.45489000     -0.18737300      4.74754000       1
I               7.06644000      1.44828000      1.13691000      53
P              -3.88741000      3.96047000     -4.76781000      15
P               5.05698000     -5.08479000      1.56633000      15
H              -4.24521000     -0.39513500      6.05680000       1
I               3.14562000      6.49464000      2.01633000      53
I              -1.29389000      5.89266000     -4.44932000      53
H               0.87452500      3.28014000     -6.75836000       1
N               0.20996300     -5.14261000      5.54827000       7
H               4.63097000     -0.39513500      6.05680000       1
H              -0.73563500     -5.48984000      5.28482000       1
H               0.05218140     -4.41962000      6.27572000       1
H               6.39146000     -0.24117500      4.37050000       1
H               0.17631000     -4.28645000     -6.46492000       1
H               0.03015720      4.63273000      6.27572000       1
I              -7.66466000     -0.41333200     -1.61410000      53
H              -4.12108000     -0.26197000     -6.68384000       1
I               2.64813000     -7.15023000      1.98592000      53
I              -1.78771000     -7.60406000      1.13691000      53
P               4.98876000      3.96047000     -4.76781000      15
I              -3.27009000     -5.43505000      4.81247000      53
I               0.08351920     -0.57398100     -7.94939000      53
P              -3.86539000     -5.09188000     -4.76781000      15
H              -2.55453000      7.39770000     -1.59796000       1
P               0.44580000     -0.70899700      7.94857000      15
H               0.15428600      4.76590000     -6.46492000       1
I              -5.74992000     -2.53483000     -5.08815000      53
I               2.36653000      1.85947000      7.55429000      53
H              -4.12518000      7.03288000     -0.80916100       1
H               4.75509000     -0.26197000     -6.68384000       1
I               5.58405000      3.61730000      4.81247000      53
N               0.31206800      4.04291000     -7.19237000       7
I               6.95134000      1.40780000     -4.27644000      53
I               7.58672000     -3.11144000      1.22665000      53
H              -0.63353100      3.69568000     -7.45582000       1
P              -8.19642000     -0.59497500      1.60936000      15
H               0.77242000     -5.90538000      5.98228000       1
I              -6.38551000      1.99263000     -5.18635000      53
H               4.75099000      7.03288000     -0.80916100       1
P               5.01078000     -5.09188000     -4.76781000      15
H              -8.18384000      2.18670000     -1.56277000       1
P               0.65773200      8.45737000      1.60936000      15
I               3.00213000     -2.66800000      7.65249000      53
C              -3.49637000      7.81675000     -1.23642000       6
H              -7.48851000      4.32276000     -0.60683300       1
H              -2.36058000     -0.10800900     -8.37013000       1
H               3.54541000     -0.05420750     -7.99310000       1
N               0.33409200     -5.00944000     -7.19237000       7
I              -2.04896000      1.27463000      8.46420000      53
I               3.10423000      6.51752000     -5.08815000      53
H               8.32894000      2.85988000     -0.68739200       1
H              -7.46649000     -4.72959000     -0.60683300       1
I               1.18949000      8.63902000     -1.61410000      53
C              -4.34757000     -0.45433600     -7.73496000       6
I              -5.73055000      6.49464000      2.01633000      53
H               0.89654900     -5.77221000     -6.75836000       1
I              -1.90281000     -7.64455000     -4.27644000      53
C               4.52860000     -0.45433600     -7.73496000       6
H              -7.49296000      4.37237000     -2.40142000       1
I              -1.39599000     -3.29285000      8.29132000      53
H               8.29340000      2.91063000     -2.36435000       1
I               2.51269000     -7.05972000     -5.18635000      53
H              -3.33673000      1.25882000     -8.38797000       1
H              -7.47094000     -4.67998000     -2.40142000       1
H              -4.30310000     -1.52523000     -7.94578000       1
I               5.60608000     -5.43505000      4.81247000      53
N              -3.32664000      0.23281100     -8.56795000       7
H              -0.61150600     -5.35667000     -7.45582000       1
H              -3.31055000      8.59734000     -0.49737900       1
H               2.00444000     -4.07813000     -8.08623000       1
H               4.57307000     -1.52523000     -7.94578000       1
C              -8.11127000      4.29750000     -1.50403000       6
I              -3.16799000      3.75047000     -7.92817000      53
I               7.60431000     -3.15969000     -4.44932000      53
H              -6.99586000     -4.21129000      4.65441000       1
H               4.43563000      7.70730000     -3.10896000       1
H              -4.44054000      7.70730000     -3.10896000       1
H              -7.90875000      3.69137000      3.60186000       1
N              -8.83845000      2.99314000     -1.53861000       7
H               0.41230800     -3.61928000     -8.77645000       1
C              -8.08924000     -4.75485000     -1.50403000       6
N               8.91389000      2.99314000     -1.53861000       7
C               1.01944000     -4.44034000     -8.38930000       6
C               5.37980000      7.81675000     -1.23642000       6
P              -8.30624000     -0.57583200     -4.79207000      15
H              -5.33077000     -0.05420750     -7.99310000       1
I              -0.06263410      8.34520000      4.79124000      53
C               0.99741200      4.61201000     -8.38930000       6
H              -3.43883000     -7.92670000      4.35267000       1
I               1.23354000     -9.46568000     -1.61410000      53
I              -6.22804000     -7.15023000      1.98592000      53
I               7.56469000      5.94090000      1.22665000      53
H               1.98242000      4.97422000     -8.08623000       1
P               9.55593000     -0.59497500      1.60936000      15
P              -4.01154000      3.82731000      7.97282000      15
H              -7.01788000      4.84106000      4.65441000       1
N              -4.21944000      8.42370000     -2.38981000       7
P               0.54790500      8.47652000     -4.79207000      15
H              -8.82592000     -3.94874000     -1.48092000       1
H               3.74070000      8.80720000     -2.07677000       1
P               0.70178000     -9.64732000      1.60936000      15
H               6.32164000      7.39770000     -1.59796000       1
H               4.42692000      7.39396000      4.79486000       1
H              -9.42340000      2.85988000     -0.68739200       1
H              -4.44925000      7.39396000      4.79486000       1
H               8.92642000     -3.94874000     -1.48092000       1
N               4.65673000      8.42370000     -2.38981000       7
H               9.56850000      2.18670000     -1.56277000       1
H               1.09155000      3.82453000     -9.13878000       1
I              -5.87405000     -2.66800000      7.65249000      53
I              -3.14596000     -5.30188000     -7.92817000      53
H              -3.60493000     -8.93737000     -2.84489000       1
H              -3.26650000     -9.50736000     -0.49737900       1
I               8.83556000     -0.70714600      4.79124000      53
I              -5.77194000      6.51752000     -5.08815000      53
P               4.86463000      3.82731000      7.97282000      15
H               5.53945000      1.25882000     -8.38797000       1
I              -6.50964000      1.85947000      7.55429000      53
I              -8.91678000     -0.70714600      4.79124000      53
H              -2.50674000      8.81117000      4.37050000       1
C              -8.00289000      4.47884000      4.35134000       6
H              -9.45895000      2.91063000     -2.36435000       1
