200
cutoff_factor=1.20000000 nneightol=1.20000000 Lattice="29.25881000       0.00000000       0.00000000       0.00000000      28.70475000       0.00000000       0.00000000       0.00000000      27.42036000" Properties=species:S:1:pos:R:3:Z:I:1
H              -0.04039680      0.80674500      0.91171800       1
C               0.93219000      1.12850000      1.29088000       6
H               2.01845000      0.02303840     -0.15088400       1
N               1.95446000      0.12464400      0.88430100       7
H               1.74124000     -0.81712000      1.26632000       1
H               1.20785000      2.09635000      0.86612400       1
H               0.92168300      1.17758000      2.38134000       1
I              -1.45943000     -1.97499000     -1.96319000      53
H               2.90359000      0.38464200      1.22196000       1
I              -0.52349300      2.57574000     -1.99489000      53
I              -3.37263000      0.76106200      1.06168000      53
P              -3.14776000      0.78932800     -2.13906000      15
I               3.05686000     -1.03086000     -2.26732000      53
I               1.51494000     -3.51024000      1.06912000      53
H              -3.12059000     -2.87154000     -0.07886760       1
P               1.26603000     -3.73897000     -2.13481000      15
H               1.67297000      1.35108000     -4.07098000       1
H              -2.47878000     -3.40872000      2.22418000       1
H              -1.80046000      4.44798000      1.00573000       1
I              -1.23541000     -1.73426000      4.46353000      53
H              -1.75877000     -4.51254000      1.00573000       1
I              -0.65992300      2.77247000      4.26366000      53
N              -3.59510000     -3.63480000      0.44724100       7
C              -2.68337000     -4.19113000      1.49060000       6
H              -0.22909000      0.38781800     -5.25489000       1
H               1.03238000     -0.73431700     -5.16046000       1
P              -3.17899000      0.78121200      4.28723000      15
H              -3.22019000      3.91996000      1.96466000       1
I               3.15641000     -1.06286000      4.35939000      53
C               1.68015000      1.26921000     -5.16030000       6
H               4.41657000     -3.30468000      0.85844700       1
N               0.74187200      0.17828900     -5.55877000       7
H              -4.48499000     -3.30468000      0.85844700       1
I               5.52893000      0.76106200      1.06168000      53
C              -2.72507000      4.76940000      1.49060000       6
I               3.92747000      3.44424000     -2.29128000      53
I               1.47324000      5.45028000      1.06912000      53
P               1.22434000      5.22155000     -2.13481000      15
P               1.32349000     -3.65291000      4.31152000      15
H              -3.83984000     -4.35742000     -0.26357300       1
H              -2.58657000     -3.11429000     -4.17916000       1
H              -3.88153000      4.60310000     -0.26357300       1
I              -2.91653000      0.54618600     -5.32190000      53
H               0.86093000      0.49168200      6.03864000       1
H              -5.99797000      0.38464200      1.22196000       1
H               1.33924000      2.20138000     -5.61617000       1
P               5.75380000      0.78932800     -2.13906000      15
H               2.68006000      1.01255000     -5.51730000       1
H              -3.17850000     -5.04056000      1.96466000       1
I              -5.84470000     -1.03086000     -2.26732000      53
N               5.30646000     -3.63480000      0.44724100       7
H               5.78097000     -2.87154000     -0.07886760       1
N              -3.63680000      5.32573000      0.44724100       7
I              -4.97409000      3.44424000     -2.29128000      53
H              -2.52048000      5.55181000      2.22418000       1
I               1.04668000     -3.56343000     -5.32544000      53
H              -2.81999000     -2.15780000     -5.52519000       1
N              -2.61048000     -3.12780000     -5.21806000       7
H               0.70031400      0.05947060     -6.59266000       1
I               3.85748000      3.41374000      4.25770000      53
H               5.06173000     -4.35742000     -0.26357300       1
H              -1.65416000     -3.37534000     -5.54231000       1
I              -0.48179900     -6.38478000     -1.99489000      53
H               5.02003000      4.60310000     -0.26357300       1
H              -3.16229000      6.08898000     -0.07886760       1
H              -6.88311000      0.02303840     -0.15088400       1
P               1.28179000      5.30762000      4.31152000      15
N              -6.94710000      0.12464400      0.88430100       7
H               1.24954000     -6.86417000      0.86612400       1
I               3.96916000     -5.51628000     -2.29128000      53
H               5.68137000      3.91996000      1.96466000       1
P               5.72257000      0.78121200      4.28723000      15
C               0.83917900      0.45447900      7.13024000       6
H               4.37488000      5.65584000      0.85844700       1
I              -5.74515000     -1.06286000      4.35939000      53
H              -4.52669000      5.65584000      0.85844700       1
H              -7.16032000     -0.81712000      1.26632000       1
I              -1.50112000      6.98554000     -1.96319000      53
I              -5.04408000      3.41374000      4.25770000      53
H              -3.40438000      3.86729000     -5.39132000       1
N               5.26477000      5.32573000      0.44724100       7
I              -0.61822900     -6.18805000      4.26366000      53
H              -0.14473600      0.74784800      7.50287000       1
H               1.09883000     -0.54611500      7.48320000       1
H               6.42278000     -3.40872000      2.22418000       1
C               6.21819000     -4.19113000      1.49060000       6
I               1.00498000      5.39709000     -5.32544000      53
H              -2.62826000      5.84623000     -4.17916000       1
I              -4.93240000     -5.51628000     -2.29128000      53
H               4.29531000     -3.79927000     -5.37165000       1
H               5.72307000     -5.04056000      1.96466000       1
H               1.64153000      2.38931000      7.34933000       1
C              -3.62234000     -4.09264000     -5.74428000       6
H               2.80736000      1.17178000      7.33221000       1
C               6.17650000      4.76940000      1.49060000       6
I               7.44214000     -1.97499000     -1.96319000      53
C               0.97388400     -7.83203000      1.29088000       6
N               1.85104000      1.41932000      7.65646000       7
I               3.89918000     -5.54678000      4.25770000      53
H              -7.69372000      2.09635000      0.86612400       1
I               5.98503000      0.54618600     -5.32190000      53
H              -4.60625000     -3.79927000     -5.37165000       1
H              -1.69585000      5.58519000     -5.54231000       1
H              -3.36269000     -5.09323000     -5.39132000       1
C              -7.96937000      1.12850000      1.29088000       6
H              -3.05911000     -2.21203000      7.25835000       1
H               6.31499000     -3.11429000     -4.17916000       1
H               0.96337700     -7.78295000      2.38134000       1
H               0.00129746     -8.15378000      0.91171800       1
I              -7.38663000     -3.51024000      1.06912000      53
N              -2.65217000      5.83273000     -5.21806000       7
H              -1.71829000     -3.40085000      7.35722000       1
I              -3.39337000      0.98368400      7.54908000      53
H               5.73928000      6.08898000     -0.07886760       1
C              -3.66403000      4.86789000     -5.74428000       6
H              -6.22150000      1.01255000     -5.51730000       1
H              -7.22859000      1.35108000     -4.07098000       1
H              -7.97988000      1.17758000      2.38134000       1
H               1.69955000      8.14340000      1.26632000       1
H               7.10110000      4.44798000      1.00573000       1
H              -3.69804000     -4.35394000      6.28186000       1
H               6.08158000     -2.15780000     -5.52519000       1
H               7.14280000     -4.51254000      1.00573000       1
H               4.25362000      5.16125000     -5.37165000       1
I              -1.27710000      7.22626000      4.46353000      53
I              -5.00239000     -5.54678000      4.25770000      53
H               5.49718000      3.86729000     -5.39132000       1
I               1.58668000     -3.86722000      7.55262000      53
H              -3.73973000      4.60659000      6.28186000       1
I              -0.60403300     -1.13337000     -8.61682000      53
H              -3.60059000     -4.05543000     -6.83588000       1
H               6.38109000      5.55181000      2.22418000       1
N               6.29109000     -3.12780000     -5.21806000       7
C              -2.71821000     -3.14420000      7.71422000       6
P              -7.63553000     -3.73897000     -2.13481000      15
H              -4.64795000      5.16125000     -5.37165000       1
I               3.01517000      7.92966000     -2.26732000      53
H               1.71466000     -7.60944000     -4.07098000       1
C               5.27923000     -4.09264000     -5.74428000       6
H               1.38094000     -6.75914000     -5.61617000       1
I              -3.33094000     -8.19946000      1.06168000      53
H               8.86117000      0.80674500      0.91171800       1
C              -7.22142000      1.26921000     -5.16030000       6
I               8.37807000      2.57574000     -1.99489000      53
P              -3.10607000     -8.17119000     -2.13906000      15
H               1.87495000      1.43282000      8.69536000       1
H              -8.94196000      0.80674500      0.91171800       1
I               7.66616000     -1.73426000      4.46353000      53
N               1.99616000     -8.83588000      0.88430100       7
H               2.94528000     -8.57588000      1.22196000       1
P              -3.17973000      0.76049900     -8.56300000      15
H              -3.64228000      4.90509000     -6.83588000       1
C               5.23753000      4.86789000     -5.74428000       6
H               2.06015000     -8.93748000     -0.15088400       1
H               1.97676000      8.98356000     -0.15088400       1
N              -3.65648000     -4.23512000      7.31575000       7
H              -2.86168000      6.80272000     -5.52519000       1
I               1.54498000      5.09330000      7.55262000      53
H               5.20353000     -4.35394000      6.28186000       1
I              -1.34680000      3.35055000     -8.51513000      53
H              -3.40766000      3.81280000      7.71406000       1
H               5.53888000     -5.09323000     -5.39132000       1
I              -7.42832000      5.45028000      1.06912000      53
N               1.91277000      9.08517000      0.88430100       7
H               5.16183000      4.60659000      6.28186000       1
I               3.16295000      2.67915000     -8.41099000      53
H              -1.75998000      5.55967000      7.35722000       1
I               5.50820000      0.98368400      7.54908000      53
C               1.72184000     -7.69131000     -5.16030000       6
H              -7.86918000     -0.73431700     -5.16046000       1
P              -7.57808000     -3.65291000      4.31152000      15
P               1.26105000     -3.76590000     -8.58729000      15
N              -3.69817000      4.72541000      7.31575000       7
P              -7.67723000      5.22155000     -2.13481000      15
H               6.27330000      5.84623000     -4.17916000       1
I               3.11472000      7.89767000      4.35939000      53
H               5.30098000     -4.05543000     -6.83588000       1
I               3.78012000     -1.77465000     -8.61086000      53
H               5.84245000     -2.21203000      7.25835000       1
H              -6.09421000      1.17178000      7.33221000       1
H               4.27412000     -4.02559000      7.61963000       1
H              -7.56232000      2.20138000     -5.61617000       1
I               8.24164000      2.77247000      4.26366000      53
H              -2.72538000     -3.06232000      8.80354000       1
H               7.24740000     -3.37534000     -5.54231000       1
P              -3.13730000     -8.17931000      4.28723000      15
H               0.99068900      8.22621000     -5.16046000       1
H              -4.62744000     -4.02559000      7.61963000       1
H              -0.08209110      9.76727000      0.91171800       1
H               2.86190000      9.34517000      1.22196000       1
H              -3.36597000     -5.14772000      7.71406000       1
N              -8.15969000      0.17828900     -5.55877000       7
H               5.25928000      4.90509000     -6.83588000       1
N               5.24508000     -4.23512000      7.31575000       7
I               5.57062000     -8.19946000      1.06168000      53
I              -9.42506000      2.57574000     -1.99489000      53
C               9.83375000      1.12850000      1.29088000       6
H               1.68323000     -6.57121000      7.34933000       1
N               6.24939000      5.83273000     -5.21806000       7
H               4.23243000      4.93493000      7.61963000       1
