200
cutoff_factor=1.20000000 nneightol=1.20000000 Lattice="28.37492000       0.00000000       0.00000000       0.00000000      28.76785000       0.00000000       0.00000000       0.00000000      28.91521000" Properties=species:S:1:pos:R:3:Z:I:1
P              -0.56421700     -0.56344900      0.01471120      15
I               2.05128000      1.32890000     -0.05791000      53
I              -2.45644000      1.99365000     -0.52915600      53
I              -0.36476000     -0.98812900     -3.14316000      53
I              -0.92163200     -0.15171000      3.18959000      53
I               1.31996000     -3.10782000      0.59052500      53
H              -0.13826600      3.01167000      2.09103000       1
H               2.68299000     -0.51305000      2.66522000       1
H               3.55248000      0.25856100     -1.89653000       1
I              -3.20487000     -2.45986000     -0.05790800      53
H               0.42261800      3.56212000     -2.04590000       1
H               2.67812000     -1.77489000     -2.87686000       1
H               4.12450000     -0.35539500      1.60773000       1
H              -1.61188000      2.82253000     -3.08716000       1
C              -0.80688600      3.61255000      2.71170000       6
C               3.75048000     -0.72246900      2.56585000       6
H              -1.46313000      2.96851000      3.30098000       1
H              -1.00260000     -4.13014000     -2.04589000       1
H              -4.24686000     -0.93884400     -1.89653000       1
N               4.15913000     -0.32141500     -2.51393000       7
C               3.33777000     -1.12750000     -3.45868000       6
H               2.75334000     -0.44407600     -4.07883000       1
H              -1.39512000      4.29233000      2.09104000       1
H              -3.47321000     -0.17484600      3.59028000       1
C              -0.15869000      4.24870000     -2.66556000       6
H               0.48439600     -3.92786000      3.10299000       1
H               3.93983000     -1.79370000      2.66522000       1
N              -0.97641800      3.44617000     -3.62041000       7
H              -4.84998000     -0.35539500      1.60773000       1
H              -0.36860100      2.87304000     -4.24130000       1
H               4.72763000     -0.93884400     -1.89653000       1
H              -4.18147000      0.30068200     -3.04902000       1
H               0.33573700     -4.07375000     -3.24033000       1
H              -0.83423900      4.84278000     -2.04589000       1
H              -1.56349000     -4.68059000      2.09104000       1
C              -0.32705500     -4.72422000     -2.66556000       6
N              -4.81535000     -0.32141500     -2.51393000       7
P               3.99689000      3.93352000      0.01471150      15
H               4.79302000      0.30068200     -3.04902000       1
H               4.33086000      1.01774000      3.59029000       1
N               0.02130950      4.42535000      3.64874000       7
H              -5.42200000      0.25856100     -1.89653000       1
H               0.58746600      3.81236000      4.27144000       1
N               4.47444000     -0.01196530      3.65680000       7
H               0.25425400     -5.41080000     -2.04590000       1
N              -4.50004000     -0.01196530      3.65680000       7
N              -0.14705500     -4.54757000      3.64874000       7
C              -5.22400000     -0.72246900      2.56585000       6
H              -0.74931200     -3.97002000      4.27145000       1
H               0.50410100      4.89917000     -3.24033000       1
H              -4.64362000      1.01774000      3.59029000       1
H               0.65276000      5.04506000      3.10299000       1
H              -5.03465000     -1.79370000      2.66522000       1
H               4.01011000     -1.72466000     -4.07883000       1
H              -1.53805000      4.06464000     -4.24130000       1
I               1.48832000      5.86510000      0.59052500      53
C              -0.97525000     -5.36037000      2.71170000       6
H               4.13455000     -0.34554000      4.57949000       1
I               5.76961000     -2.45986000     -0.05790800      53
I               3.57603000      4.14092000     -3.14316000      53
H              -0.30663100     -5.96125000      2.09103000       1
P               3.82853000     -5.03940000      0.01471150      15
P              -4.97759000      3.93352000      0.01471150      15
P              -0.33432500     -0.33881900      6.33295000      15
P              -0.78861800     -0.78466300     -6.26303000      15
I               4.40185000      3.56844000      3.18959000      53
H               5.50127000     -0.17484600      3.59028000       1
I               2.32043000     -2.12595000      5.80578000      53
H              -0.58094800      5.00291000      4.27145000       1
I              -4.57263000      3.56844000      3.18959000      53
H              -4.96437000     -1.72466000     -4.07883000       1
I               1.00320000      1.94745000     -6.29873000      53
H              -4.83993000     -0.34554000      4.57949000       1
I               3.40767000     -4.83201000     -3.14316000      53
N              -1.14478000     -5.52675000     -3.62041000       7
H              -1.70642000     -4.90829000     -4.24130000       1
C              -5.63671000     -1.12750000     -3.45868000       6
H               0.41910100     -5.16056000      4.27144000       1
I              -3.42547000      1.04264000     -5.70902000      53
I               6.51804000      1.99365000     -0.52915600      53
H              -6.29150000     -0.51305000      2.66522000       1
I               1.45750000      2.39329000      6.29725000      53
H              -1.63150000     -6.00442000      3.30098000       1
I              -6.92320000      1.32890000     -0.05791000      53
H              -1.78024000     -6.15040000     -3.08716000       1
H              -6.29636000     -1.77489000     -2.87686000       1
I              -3.03651000      6.51306000     -0.05790800      53
P              -5.14595000     -5.03940000      0.01471150      15
I              -2.15181000     -3.07351000      6.29725000      53
H              -0.53696600     -6.09989000     -4.24130000       1
H              -6.22115000     -0.44407600     -4.07883000       1
I              -2.62481000     -6.97927000     -0.52915600      53
I              -5.39845000      4.14092000     -3.14316000      53
I               1.86613000     -2.57180000     -6.79020000      53
I               4.23349000     -5.40448000      3.18959000      53
I              -2.97118000      1.48848000      6.88696000      53
I              -2.60610000     -3.51935000     -6.29873000      53
I              -4.74099000     -5.40448000      3.18959000      53
I               1.88291000     -7.64402000     -0.05791000      53
I              -5.56681000     -4.83201000     -3.14316000      53
I               5.54901000      1.04264000     -5.70902000      53
P               3.77151000      3.71331000     -6.26303000      15
H               2.84648000      7.19803000     -2.87686000       1
I              -7.65452000     -3.10782000      0.59052500      53
P              -0.39585300      8.40947000      0.01471120      15
P               8.41026000     -0.56344900      0.01471120      15
H               7.36260000      2.82253000     -3.08716000       1
I              -0.19639600      7.98479000     -3.14316000      53
I               8.05285000     -0.15171000      3.18959000      53
P               4.22580000      4.15916000      6.33295000      15
I              -2.43774000      5.45357000     -6.29873000      53
H               4.10820000      7.17922000      2.66522000       1
H               7.51135000      2.96851000      3.30098000       1
I               5.93797000      6.51306000     -0.05790800      53
I              -1.98344000      5.89941000      6.29725000      53
H               3.68026000     -0.79138400     -8.01649000       1
P               4.05743000     -4.81377000      6.33295000      15
P               3.60314000     -5.25961000     -6.26303000      15
P              -4.74868000      4.15916000      6.33295000      15
P              -5.20298000      3.71331000     -6.26303000      15
H               7.57936000      4.29233000      2.09104000       1
H               0.13317300      3.36652000     -8.32454000       1
H               0.08569170      3.31888000      8.35468000       1
H               7.41100000     -4.68059000      2.09104000       1
H              -4.86628000      7.17922000      2.66522000       1
I              -6.65406000     -2.12595000      5.80578000      53
H               3.20763000      0.00176834      8.51715000       1
I               1.28913000     -6.57963000      6.29725000      53
H              -4.07849000      8.03408000     -1.89653000       1
H               7.97188000     -4.13014000     -2.04589000       1
I               8.60972000     -0.98812900     -3.14316000      53
I               6.00330000      1.48848000      6.88696000      53
C               3.50614000      7.84542000     -3.45868000       6
H               4.17848000      7.24826000     -4.07883000       1
I               2.48879000      6.84697000      5.80578000      53
H               2.85135000      8.45987000      2.66522000       1
C               8.16760000      3.61255000      2.71170000       6
P              -4.91705000     -4.81377000      6.33295000      15
I              -0.75326800      8.82121000      3.18959000      53
N               7.99806000      3.44617000     -3.62041000       7
I               6.34967000     -6.97927000     -0.52915600      53
I               0.08953310     -0.54228400      9.45282000      53
I               0.83484000     -7.02548000     -6.29873000      53
H               7.43643000      4.06464000     -4.24130000       1
H              -8.55186000      3.56212000     -2.04590000       1
C               3.91884000      8.25045000      2.56585000       6
H              -1.20361000     -4.41586000     -8.32453000       1
I              -1.37592000     -0.59755400     -9.40639000      53
I              -7.48616000      5.86510000      0.59052500      53
H               3.38412000     -8.71436000     -1.89653000       1
H              -1.03524000      4.55706000     -8.32453000       1
I               2.03450000      6.40113000     -6.79020000      53
H              -1.25212000     -4.46244000      8.35468000       1
P              -9.53870000     -0.56344900      0.01471120      15
H              -1.08376000      4.51048000      8.35468000       1
P              -0.73258200     -9.53637000      0.01471120      15
H               8.83622000      3.01167000      2.09103000       1
H               4.89599000      8.03408000     -1.89653000       1
H              -4.79601000      7.24826000     -4.07883000       1
I               6.36838000     -3.51935000     -6.29873000      53
H              -5.29422000     -0.79138400     -8.01649000       1
H               4.16249000     -7.95518000      3.59029000       1
H               8.14024000      4.84278000     -2.04589000       1
H               4.46440000     -1.27881000      8.51715000       1
H              -4.51008000     -1.27881000      8.51715000       1
I              -1.09000000     -9.12463000      3.18959000      53
H               7.26806000     -4.90829000     -4.24130000       1
H               4.29287000      8.61753000      1.60773000       1
I               6.82267000     -3.07351000      6.29725000      53
P              -5.37134000     -5.25961000     -6.26303000      15
N              -0.52212500      3.89202000      8.97557000       7
N              -0.43298400      3.97951000     -8.94724000       7
N               4.02015000     -0.45781000     -8.93918000       7
H              -1.91743000      2.52266000     -9.29500000       1
H               3.87657000      0.57189600     -9.00569000       1
H              -9.11275000      3.01167000      2.09103000       1
H              -3.92750000     -0.62069000     -9.00570000       1
H              -8.49009000     -3.92786000      3.10299000       1
H              -6.12800000      7.19803000     -2.87686000       1
H               2.92170000      8.52885000     -4.07883000       1
I              -9.33924000     -0.98812900     -3.14316000      53
C               3.79206000     -0.68165900      9.13730000       6
H              -4.68161000      8.61753000      1.60773000       1
H               7.19424000     -6.15040000     -3.08716000       1
H              -4.81199000     -7.95518000      3.59029000       1
N               4.32750000      8.65151000     -2.51393000       7
C               7.99923000     -5.36037000      2.71170000       6
C              -5.05564000      8.25045000      2.56585000       6
H               8.60588000      2.87304000     -4.24130000       1
H              -0.03519180     -5.60641000     -8.32454000       1
H               7.34298000     -6.00442000      3.30098000       1
H              -3.30484000      8.79808000      3.59028000       1
H               0.79003000     -3.62791000      9.35565000       1
H               8.22517000     -3.97002000      4.27145000       1
H              -8.63874000     -4.07375000     -3.24033000       1
H              -0.08267270     -5.65404000      8.35468000       1
I              -7.51698000      2.39329000      6.29725000      53
H              -1.15758000      3.26837000      9.50882000       1
H               3.72084000      9.23148000     -1.89653000       1
N              -4.64698000      8.65151000     -2.51393000       7
