200
cutoff_factor=1.20000000 nneightol=1.20000000 Lattice="28.70639000       0.00000000       0.00000000       0.00000000      28.64842000       0.00000000       0.00000000       0.00000000      27.79812000" Properties=species:S:1:pos:R:3:Z:I:1
I              -1.50722000      0.53063700     -0.90202100      53
H              -0.13789700     -0.22659300      2.58501000       1
H               0.96561100     -2.15809000     -1.15359000       1
I               2.89289000     -0.14052000     -0.35051100      53
H               2.12071000      0.50549900      2.07542000       1
H               1.10106000      1.81478000      2.17231000       1
P               1.15870000      2.04021000     -1.99362000      15
N               1.52781000      1.05166000      2.73440000       7
N               0.66437100     -2.66704000     -2.00837000       7
C               0.48146600      0.20567000      3.37326000       6
H              -0.34853300     -2.87890000     -1.92738000       1
H               0.81088600     -2.02035000     -2.81068000       1
I              -0.72712100     -3.04264000      1.79815000      53
P              -3.35707000     -1.57862000      0.63624900      15
I               0.92635300      3.90061000      0.64847100      53
H               0.97250900     -0.58028200      3.95146000       1
H              -0.12251100      0.84145200      4.02361000       1
H               2.12845000      1.52617000      3.44117000       1
H              -1.67419000      4.14954000      0.12607800       1
H              -2.10810000      0.60866100     -3.90179000       1
I               1.24919000      0.03170250     -4.48110000      53
H              -2.93173000      3.54885000     -0.81727500       1
C               1.46796000     -3.91365000     -2.18749000       6
I              -3.42279000      0.26391100      3.29906000      53
H              -3.32021000      3.06275000      1.53355000       1
H               1.29719000     -4.56240000     -1.32550000       1
H               2.52272000     -3.63790000     -2.25616000       1
N              -2.68640000      4.24975000     -0.09247970       7
I              -3.08171000     -3.57324000     -1.88938000      53
H              -3.20456000     -0.81128500     -3.97847000       1
C              -2.74552000      0.00063114     -4.54710000       6
I              -0.71944800      4.07418000     -3.52772000      53
C              -3.51564000      4.06054000      1.13423000       6
H               1.14223000     -4.40517000     -3.10703000       1
I               3.75533000     -3.72394000      2.21367000      53
H              -2.16932000     -0.39621300     -5.38559000       1
P               5.58113000     -1.57862000      0.63624900      15
H              -2.84140000      5.19312000     -0.50306400       1
I               3.81662000      3.50996000     -2.97145000      53
I              -6.04531000     -0.14052000     -0.35051100      53
H               4.37033000      4.16452000      0.85974800       1
H              -3.23441000      4.82511000      1.86187000       1
P               1.12987000     -5.17179000      3.26241000      15
H              -3.50204000     -1.81860000      4.81139000       1
H              -4.56787000      4.16452000      0.85974800       1
I              -1.47897000      4.28692000      4.39062000      53
H              -4.39988000      1.30285000     -4.34106000       1
H               4.53832000      1.30285000     -4.34106000       1
N              -3.82688000      0.86935000     -5.09167000       7
I               5.51541000      0.26391100      3.29906000      53
H              -2.77287000     -5.82778000     -0.50306400       1
H               5.61799000      3.06275000      1.53355000       1
I               2.96652000      3.62470000      4.73421000      53
H               1.22866000      6.45851000     -1.32550000       1
I              -5.18287000     -3.72394000      2.21367000      53
H              -2.23102000     -3.87252000      5.07529000       1
P               1.06134000      5.84912000      3.26241000      15
H              -3.44034000      1.65770000     -5.64949000       1
C               5.42256000      4.06054000      1.13423000       6
I              -5.12158000      3.50996000     -2.97145000      53
I               1.18749000     -3.44461000      5.97978000      53
I              -0.78115000      0.59787300      6.93316000      53
I              -1.34874000     -3.25768000     -6.07026000      53
H               6.00647000      3.54885000     -0.81727500       1
H               5.73364000     -0.81128500     -3.97847000       1
H              -1.60566000     -6.87136000      0.12607800       1
P              -3.34849000      2.22231000      5.87042000      15
I               5.85648000     -3.57324000     -1.88938000      53
N              -3.88858000     -2.60696000      5.36922000       7
H              -6.81749000      0.50549900      2.07542000       1
H               4.43283000     -3.13067000      4.71493000       1
H               1.03421000      2.89603000     -6.50942000       1
H              -3.16588000     -6.19580000      1.86187000       1
I               0.99488300     -7.12030000      0.64847100      53
H              -4.50536000     -3.13067000      4.71493000       1
N              -2.61787000     -6.77116000     -0.09247970       7
N               5.11132000      0.86935000     -5.09167000       7
H              -4.44366000      0.34563400     -5.74595000       1
H               4.49454000      0.34563400     -5.74595000       1
H               1.07370000      6.61574000     -3.10703000       1
C              -2.80723000     -3.47568000      5.91379000       6
H              -2.16981000     -2.86765000      6.55910000       1
H               5.43616000     -1.81860000      4.81139000       1
P               1.19157000     -1.69548000     -7.19847000      15
I               7.43098000      0.53063700     -0.90202100      53
N               6.25180000      4.24975000     -0.09247970       7
C               1.39943000      7.10725000     -2.18749000       6
I               3.09675000     -3.91990000     -5.72668000      53
C               6.19267000      0.00063114     -4.54710000       6
H               5.70379000      4.82511000      1.86187000       1
H              -6.41547000     -3.63790000     -2.25616000       1
P              -3.21826000     -5.32228000     -4.59047000      15
H              -0.06080950      4.31776000     -6.43727000       1
H              -6.80975000      1.52617000      3.44117000       1
N               5.04962000     -2.60696000      5.36922000       7
I              -0.65091900     -6.94673000     -3.52772000      53
C              -3.44711000     -6.96037000      1.13423000       6
H              -4.46158000     -2.17346000      6.11982000       1
H               4.47661000     -2.17346000      6.11982000       1
H               6.83009000      0.60866100     -3.90179000       1
N              -7.41039000      1.05166000      2.73440000       7
C               0.54316800      3.68198000     -7.08762000       6
P              -3.28679000      5.69862000     -4.59047000      15
H               6.09680000      5.19312000     -0.50306400       1
H              -2.86320000     -7.47206000     -0.81727500       1
H               5.49786000      1.65770000     -5.64949000       1
H               1.01200000      3.13943000      7.35386000       1
H               2.45419000      7.38301000     -2.25616000       1
I              -1.41044000     -6.73398000      4.39062000      53
H               4.43886000     -6.85639000      0.85974800       1
I              -0.79565000      7.97826000      1.79815000      53
H              -4.49934000     -6.85639000      0.85974800       1
P              -7.77950000      2.04021000     -1.99362000      15
I              -3.15024000      7.44766000     -1.88938000      53
H              -7.83714000      1.81478000      2.17231000       1
H              -7.97259000     -2.15809000     -1.15359000       1
H               7.26401000      4.14954000      0.12607800       1
H              -0.41706300      8.14201000     -1.92738000       1
I               3.75492000      0.03365250      7.48943000      53
P               5.58971000      2.22231000      5.87042000      15
H              -3.26626000     -4.28759000      6.48241000       1
I              -5.97168000      3.62470000      4.73421000      53
I               3.68680000      7.29697000      2.21367000      53
H               6.16533000     -5.82778000     -0.50306400       1
H              -0.07619470      3.24972000     -7.87587000       1
N               0.59584200      8.35387000     -2.00837000       7
P               1.09700000     -1.43610000      8.46727000      15
H               6.76888000     -0.39621300     -5.38559000       1
H               5.77232000     -6.19580000      1.86187000       1
I              -0.66541900      0.43366600     -8.66273000      53
C              -7.47024000     -3.91365000     -2.18749000       6
H              -3.25168000     -7.95816000      1.53355000       1
I              -3.36109000      3.74022000     -7.16182000      53
H              -8.12731000     -2.02035000     -2.81068000       1
H               2.19015000      5.00248000     -7.01971000       1
I              -7.68900000      0.03170250     -4.48110000      53
H              -7.96569000     -0.58028200      3.95146000       1
N              -8.27383000     -2.66704000     -2.00837000       7
I              -8.01184000      3.90061000      0.64847100      53
C               5.49109000     -6.96037000      1.13423000       6
I               8.21108000     -3.04264000      1.79815000      53
I               3.88515000     -7.51095000     -2.97145000      53
H               0.89708200      8.86282000     -1.15359000       1
H              -7.64100000     -4.56240000     -1.32550000       1
P               5.71994000     -5.32228000     -4.59047000      15
H              -2.29955000      7.14838000      5.07529000       1
I              -5.84145000     -3.91990000     -5.72668000      53
I               3.81703000     -0.24762800     -8.24721000      53
N               1.58951000      4.52797000     -7.72648000       7
C              -8.45673000      0.20567000      3.37326000       6
I              -5.18328000      0.03365250      7.48943000      53
C               1.33772000      3.63094000      8.27339000       6
H               8.80030000     -0.22659300      2.58501000       1
C               6.13097000     -3.47568000      5.91379000       6
P               5.65141000      5.69862000     -4.59047000      15
I              -5.25140000      7.29697000      2.21367000      53
H               6.70718000     -3.87252000      5.07529000       1
H               8.58966000     -2.87890000     -1.92738000       1
N               6.32033000     -6.77116000     -0.09247970       7
P               1.22723000     -8.98070000     -1.99362000      15
I               3.03505000     -7.39621000      4.73421000      53
H               0.00771988     -6.70315000     -6.43727000       1
H               2.39249000      3.90670000      8.20472000       1
H              -9.07609000     -0.22659300      2.58501000       1
H               0.74918400     -5.49666000      7.65020000       1
H               0.74235700      9.00055000     -2.81068000       1
H               0.68065500      5.52425000      7.65020000       1
H              -7.79596000     -4.40517000     -3.10703000       1
H               2.25868000     -6.01843000     -7.01971000       1
I              -5.05305000     -7.51095000     -2.97145000      53
H               1.16959000     -9.20613000      2.17231000       1
H               2.18241000      3.98181000     -8.38546000       1
H              -3.10418000     -2.71949000     -8.59902000       1
I               3.02822000      7.10100000     -5.72668000      53
I               5.78795000      7.44766000     -1.88938000      53
H               5.67194000     -4.28759000      6.48241000       1
I               7.45923000      4.28692000      4.39062000      53
H               6.07500000     -7.47206000     -0.81727500       1
H               1.16696000      2.98220000      9.13539000       1
I              -5.12117000     -0.24762800     -8.24721000      53
I               1.11896000      7.57630000      5.97978000      53
H               8.81569000      0.84145200      4.02361000       1
H              -0.47876400      4.66570000      8.53350000       1
N               0.53414000      4.87756000      8.45251000       7
I               5.57711000      3.74022000     -7.16182000      53
I               8.21875000      4.07418000     -3.52772000      53
H               6.76839000     -2.86765000      6.55910000       1
H               5.68651000     -7.95816000      1.53355000       1
H               1.16276000      5.29109000     -8.28857000       1
H              -9.28673000     -2.87890000     -1.92738000       1
P              -7.80833000     -5.17179000      3.26241000      15
H              -3.33479000      6.73331000      6.48241000       1
H              -9.06071000      0.84145200      4.02361000       1
I              -1.41727000      7.76323000     -6.07026000      53
I              -3.21195000      3.97135000      8.57150000      53
C               9.41966000      0.20567000      3.37326000       6
C              -2.87575000      7.54523000      5.91379000       6
H               7.33254000     -6.87136000      0.12607800       1
P              -3.42560000      9.44229000      0.63624900      15
H              -6.48400000      7.38301000     -2.25616000       1
