200
cutoff_factor=1.20000000 nneightol=1.20000000 Lattice="30.24117000       0.00000000       0.00000000       0.00000000      29.70881000       0.00000000       0.00000000       0.00000000      29.23050000" Properties=species:S:1:pos:R:3:Z:I:1
H               0.10088400     -0.07641100     -0.67882200       1
C              -0.00021471      0.42116700     -1.64600000       6
H              -0.12691300      1.49783000     -1.51402000       1
H               0.86290200      0.21016200     -2.27718000       1
N              -1.20527000     -0.11625500     -2.32699000       7
H              -2.02810000      0.02497380     -1.70593000       1
H              -1.11115000     -1.14614000     -2.47747000       1
I               1.42441000     -2.80627000      0.46372100      53
I              -3.38819000     -0.07292830      0.46412300      53
H              -1.33936000      0.33823500     -3.25963000       1
H               2.78475000     -2.90433000     -1.70594000       1
I               3.58032000      0.70826900     -2.83183000      53
I              -2.18046000      3.85801000     -1.34747000      53
I              -1.23248000     -3.58796000     -2.83254000      53
H               0.89699500      3.03270000      3.54349000       1
H               3.70261000     -1.73363000     -2.47688000       1
P               0.87074400     -3.21089000      3.55780000      15
I              -1.94606000     -2.03861000      4.19812000      53
N               3.60759000     -2.76354000     -2.32709000       7
I               2.86682000     -0.84035400      4.19765000      53
H               1.41969000      1.10129000      4.93773000       1
P              -3.94194000      0.33203800      3.55804000      15
P               4.69888000      2.66858000     -0.68442200      15
H              -3.95025000     -3.09250000     -2.27836000       1
H              -4.71128000     -2.80612000     -0.67947100       1
P              -0.11430000     -5.54815000     -0.68473300      15
P              -4.92678000      2.66858000     -0.68442200      15
H               4.91438000     -2.80612000     -0.67947100       1
C               1.22891000      3.17949000      4.57360000       6
H              -0.08482870      1.77648000      5.42126000       1
I               2.63247000      4.88515000     -1.34763000      53
I               4.26545000      2.99681000      2.39726000      53
H               3.47281000     -3.21719000     -3.26003000       1
N               0.94440200      1.93444000      5.34717000       7
I              -0.97076000      0.84292700     -5.74699000      53
H               2.89590000      0.90794300     -5.15893000       1
C               4.81229000     -3.30286000     -1.64697000       6
C              -4.81337000     -3.30286000     -1.64697000       6
P              -0.11389900      6.07447000     -0.68473300      15
H               2.30347000      3.36908000      4.60734000       1
I              -0.54735500      5.74699000      2.39702000      53
I               6.23747000     -0.07292830      0.46412300      53
H               1.51040000      1.15607000     -6.06533000       1
I              -0.54775600     -5.87563000      2.39702000      53
H               0.68295800      4.00473000      5.03587000       1
H               4.68441000     -4.37948000     -1.51575000       1
I              -5.36021000      2.99681000      2.39726000      53
I              -2.56602000      2.08961000      5.74036000      53
H              -5.92304000     -1.73363000     -2.47688000       1
H              -1.91689000     -3.78709000     -5.15980000       1
I              -6.04533000      0.70826900     -2.83183000      53
P               5.68371000      0.33203800      3.55804000      15
N               2.53965000      0.99820700     -6.13946000       7
H               1.30066000      2.02440000      6.32772000       1
H              -4.94124000     -4.37948000     -1.51575000       1
H               5.67540000     -3.09250000     -2.27836000       1
H               2.27865000     -1.07206000     -6.45156000       1
N              -6.01806000     -2.76354000     -2.32709000       7
H              -2.53459000     -1.80675000     -6.45166000       1
H              -3.39365000     -3.97958000      4.93895000       1
I               2.63207000     -6.73747000     -1.34763000      53
H              -0.91408000     -2.44240000     -6.88018000       1
H               3.01486000      1.83156000     -6.54857000       1
C               2.82436000     -0.24649500     -6.91354000       6
H              -2.50913000      5.37559000      4.60755000       1
N              -2.27314000     -3.87704000     -6.14036000       7
H              -6.84090000     -2.90433000     -1.70594000       1
C              -1.98864000     -2.63200000     -6.91392000       6
H              -6.15284000     -3.21719000     -3.26003000       1
H              -3.91575000      5.71208000      3.54396000       1
H               7.59755000      0.02497380     -1.70593000       1
I               3.84208000     -3.72187000     -5.74716000      53
I               2.24639000     -4.96821000      5.74053000      53
H               3.89898000     -0.43589200     -6.87997000       1
H              -3.91615000     -5.91054000      3.54396000       1
H              -3.30238000     -4.03501000     -6.06626000       1
I              -6.75883000     -0.84035400      4.19765000      53
C              -3.58374000      5.56499000      4.57398000       6
H              -4.12946000      4.73942000      5.03596000       1
H              -2.50953000     -6.24703000      4.60755000       1
N              -3.86886000     -4.81293000      5.34806000       7
I              -2.18086000     -7.76461000     -1.34747000      53
H              -1.79785000     -4.71020000     -6.54979000       1
H               2.49236000     -0.09940360     -7.94356000       1
C              -3.58415000     -6.05763000      4.57398000       6
I               7.44519000      3.85801000     -1.34747000      53
H              -6.72975000      0.90794300     -5.15893000       1
H               4.72754000     -4.65506000      5.42219000       1
I              -1.23208000      8.03466000     -2.83254000      53
I              -6.99318000      4.88515000     -1.34763000      53
H              -4.89811000     -4.65506000      5.42219000       1
P              -2.34640000      2.60024000     -7.92973000      15
I              -8.20124000     -2.80627000      0.46372100      53
H              -2.32055000     -2.77878000     -7.94403000       1
N               8.42038000     -0.11625500     -2.32699000       7
H              -3.51261000     -4.90319000      6.32859000       1
H               4.68482000      7.24314000     -1.51575000       1
H               5.70990000      5.71208000      3.54396000       1
I              -0.35032600      4.97078000     -7.28987000      53
H               5.49619000      4.73942000      5.03596000       1
H               6.23200000     -3.97958000      4.93895000       1
H              -4.94084000      7.24314000     -1.51575000       1
H               8.28630000      0.33823500     -3.25963000       1
H               8.51450000     -1.14614000     -2.47747000       1
I               1.42481000      8.81635000      0.46372100      53
H               5.70950000     -5.91054000      3.54396000       1
H              -5.72667000     -0.43589200     -6.87997000       1
I              -5.78357000     -3.72187000     -5.74716000      53
I               7.67959000     -2.03861000      4.19812000      53
H              -8.76275000      0.21016200     -2.27718000       1
I               2.24679000      6.65441000      5.74053000      53
H              -2.93529000      2.59429000      8.22749000       1
I               1.98507000      2.22353000      8.65498000      53
H               0.68255700     -7.61789000      5.03587000       1
P               0.87114500      8.41173000      3.55780000      15
N               5.75680000     -4.81293000      5.34806000       7
H              -7.32219000      3.36908000      4.60734000       1
H               2.78515000      8.71829000     -1.70594000       1
H               0.89659400     -8.58992000      3.54349000       1
I               7.05963000      2.08961000      5.74036000      53
I               4.46245000      3.77252000     -7.28940000      53
C               6.04191000      5.56499000      4.57398000       6
N              -7.08600000      0.99820700     -6.13946000       7
H              -4.12986000     -6.88320000      5.03596000       1
N              -3.86846000      6.80969000      5.34806000       7
H              -6.61080000      1.83156000     -6.54857000       1
H              -9.52477000     -0.07641100     -0.67882200       1
I               8.39317000     -3.58796000     -2.83254000      53
I               1.04790000     -2.81467000     -9.09026000      53
H              -1.91649000      7.83553000     -5.15980000       1
H              -0.73270400      2.71899000      9.20916000       1
H              -8.20596000      1.10129000      4.93773000       1
H               6.32328000     -4.03501000     -6.06626000       1
H               3.47321000      8.40543000     -3.26003000       1
H              -3.94985000      8.53012000     -2.27836000       1
C               1.22850000     -8.44313000      4.57360000       6
H              -1.79745000      6.91242000     -6.54979000       1
I              -5.16321000      3.77252000     -7.28940000      53
C              -6.80129000     -0.24649500     -6.91354000       6
C               6.04151000     -6.05763000      4.57398000       6
H              -3.39325000      7.64304000      4.93895000       1
H               2.30306000     -8.25354000      4.60734000       1
H               9.49874000      1.49783000     -1.51402000       1
H               9.72654000     -0.07641100     -0.67882200       1
C               4.81269000      8.31976000     -1.64697000       6
C              -4.81297000      8.31976000     -1.64697000       6
H               7.09107000     -1.80675000     -6.45166000       1
C               9.62544000      0.42116700     -1.64600000       6
C              -9.62587000      0.42116700     -1.64600000       6
I              -6.99358000     -6.73747000     -1.34763000      53
H              -7.34701000     -1.07206000     -6.45156000       1
I              -3.76490000     -0.06449920     -9.09050000      53
N               3.60799000      8.85908000     -2.32709000       7
I              -0.35072700     -6.65184000     -7.28987000      53
H              -3.51221000      6.71943000      6.32859000       1
H              -8.72866000      3.03270000      3.54349000       1
I               4.26504000     -8.62581000      2.39726000      53
P               2.46616000     -5.47945000     -7.92949000      15
P              -8.75491000     -3.21089000      3.55780000      15
H              -9.75257000      1.49783000     -1.51402000       1
H               4.72794000      6.96756000      5.42219000       1
H              -4.71087000      8.81650000     -0.67947100       1
H               7.70876000     -3.78709000     -5.15980000       1
H               7.11652000      5.37559000      4.60755000       1
N              -2.80051000      3.04794000      9.16043000       7
H               1.87779000     -5.47290000      8.22789000       1
H               6.11304000     -4.90319000      6.32859000       1
C              -8.39675000      3.17949000      4.57360000       6
H              -4.89771000      6.96756000      5.42219000       1
H               4.91478000      8.81650000     -0.67947100       1
P               4.69848000     -8.95404000     -0.68442200      15
N              -2.27274000      7.74558000     -6.14036000       7
H               5.49579000     -6.88320000      5.03596000       1
H              -8.11526000      1.15607000     -6.06533000       1
H              -1.72369000      1.43200000      9.97178000       1
H              -0.12731400    -10.12480000     -1.51402000       1
P              -4.92718000     -8.95404000     -0.68442200      15
H              -2.70550000      4.07786000      9.01064000       1
H              -3.30197000      7.58761000     -6.06626000       1
C              -1.59582000      2.50863000      9.84055000       6
P               2.46656000      6.14317000     -7.92949000      15
N               7.35251000     -3.87704000     -6.14036000       7
H               2.10639000      4.66535000      9.01005000       1
N              -8.68125000      1.93444000      5.34717000       7
I               1.03668000     -1.95312000     10.14000000      53
N               5.75720000      6.80969000      5.34806000       7
I               8.65489000      0.84292700     -5.74699000      53
I              -5.36061000     -8.62581000      2.39726000      53
I              -2.82819000     -5.10287000      8.65569000      53
H               1.87819000      6.14972000      8.22789000       1
H               5.67580000      8.53012000     -2.27836000       1
I               3.84248000      7.90075000     -5.74716000      53
H               7.11612000     -6.24703000      4.60755000       1
I              -7.37927000     -4.96821000      5.74053000      53
C               7.63701000     -2.63200000     -6.91392000       6
I              -1.94566000      9.58401000      4.19812000      53
H              -8.32500000      2.02440000      6.32772000       1
H              -7.13330000     -0.09940360     -7.94356000       1
H              10.48860000      0.21016200     -2.27718000       1
I               5.86075000     -0.06449920     -9.09050000      53
