200
cutoff_factor=1.20000000 nneightol=1.20000000 Lattice="28.42106000       0.00000000       0.00000000       0.00000000      28.35115000       0.00000000       0.00000000       0.00000000      29.46382000" Properties=species:S:1:pos:R:3:Z:I:1
P              -0.04863200     -0.92800500     -0.03119700      15
I              -1.76884000      1.76881000     -0.47129100      53
I               2.60614000      0.90196600     -0.39967100      53
I               0.30190200     -0.63122800      3.17952000      53
I              -0.20278700     -1.69652000     -3.12715000      53
H               0.60674300      2.42129000      2.82051000       1
H               0.08179780      3.31932000     -1.83728000       1
I              -2.68916000     -2.74478000      0.47763300      53
H              -1.05263000      2.93515000      2.37064000       1
I               1.85771000     -3.61163000      0.40600300      53
H               2.97296000     -0.87838600      2.73436000       1
C              -0.27546700      2.98237000      3.13640000       6
H              -3.40533000     -1.57838000     -2.36427000       1
H              -0.06677730      2.26452000     -4.01267000       1
H               3.95616000      0.28780100     -2.43088000       1
N               0.46687900      3.80011000     -2.67607000       7
H               1.49091000      3.63523000     -2.72807000       1
N               3.99699000     -0.71349400      2.68239000       7
H               4.12995000      0.31363900      2.56891000       1
H              -0.65273700      2.59998000      4.08749000       1
H               4.38210000     -1.19430000      1.84363000       1
H               0.50771500     -4.22585000      2.43717000       1
H               0.33390800     -4.19994000     -2.56260000       1
H              -4.53974000     -1.19430000      1.84363000       1
H              -3.17124000     -0.94786100      3.82417000       1
C              -0.22191300      3.34089000     -3.91189000       6
H               3.85711000     -2.09227000     -2.81402000       1
H              -3.76571000      0.46110300     -3.62391000       1
H              -1.28678000      3.56571000     -3.81777000       1
H               0.50771400      4.80134000      2.43717000       1
H               3.61483000      0.00089950     -4.04868000       1
C              -4.18254000     -1.53122000     -3.12999000       6
H              -4.79189000      0.31363900      2.56891000       1
N               4.34663000     -0.10801600     -3.31507000       7
H               0.33390600      4.82725000     -2.56260000       1
H              -0.69229500     -4.05246000      3.63016000       1
N               0.11721200      4.40558000      3.32139000       7
H              -4.96569000      0.28780100     -2.43088000       1
N              -4.57522000     -0.10801600     -3.31507000       7
N              -4.92486000     -0.71349400      2.68239000       7
P              -4.40936000      3.58559000      0.03753300      15
N               0.11721300     -4.62161000      3.32139000       7
I               1.85771000      5.41556000      0.40600300      53
P               4.51248000      3.58559000      0.03753300      15
C               4.73931000     -1.53122000     -3.12999000       6
C              -4.23612000     -1.17268000      3.91825000       6
N               0.46688100     -5.22708000     -2.67607000       7
H              -3.80532000     -1.91369000     -4.08107000       1
I              -4.25522000      2.81707000      3.13349000      53
H               0.08179960     -5.70786000     -1.83728000       1
H               0.84900100     -4.51265000      4.05501000       1
H               0.84899900      4.51454000      4.05501000       1
H               0.20624600      3.87067000     -4.76522000       1
H              -5.06473000     -2.09227000     -2.81402000       1
H              -0.69229700      4.97472000      3.63016000       1
H               5.51652000     -1.57838000     -2.36427000       1
C               4.68573000     -1.17268000      3.91825000       6
H               1.49091000     -5.39196000     -2.72807000       1
I               4.66663000      2.81707000      3.13349000      53
H               5.15614000      0.46110300     -3.62391000       1
H              -4.39125000     -2.24905000      4.01905000       1
I               2.14705000      0.98170600     -5.91666000      53
I              -6.31571000      0.90196600     -0.39967100      53
P              -0.19772500     -1.11966000     -6.29417000      15
H               4.25754000     -0.64287600      4.77155000       1
H               4.53060000     -2.24905000      4.01905000       1
P               0.22298700     -1.11965000      6.41157000      15
I               4.16194000      3.88237000     -3.17319000      53
I              -2.39140000      1.16749000     -5.95349000      53
H              -5.94889000     -0.87838600      2.73436000       1
H              -1.05263000     -6.09204000      2.37064000       1
H              -5.30702000      0.00089950     -4.04868000       1
H              -4.66431000     -0.64287600      4.77155000       1
H              -1.28678000     -5.46148000     -3.81777000       1
C              -0.27546500     -6.04482000      3.13640000       6
H               5.11653000     -1.91369000     -4.08107000       1
I               6.23269000     -2.74478000      0.47763300      53
I              -2.68916000      6.28241000      0.47763300      53
C              -0.22191100     -5.68630000     -3.91189000       6
I              -4.75991000      3.88237000     -3.17319000      53
H               5.75061000     -0.94786100      3.82417000       1
P              -4.40936000     -5.44160000      0.03753300      15
H               0.20624800     -5.15651000     -4.76522000       1
P               4.51249000     -5.44160000      0.03753300      15
I              -1.97068000      1.16750000      6.75225000      53
I              -2.06663000     -3.34610000      5.95983000      53
H               0.60674500     -6.60590000      2.82051000       1
I               2.31677000     -3.53189000      5.92300000      53
I               2.56777000      0.98171400      6.78908000      53
I               4.16194000     -5.14482000     -3.17319000      53
I               7.15300000      1.76881000     -0.47129100      53
I              -1.76884000     -7.25838000     -0.47129100      53
H              -0.65273500     -6.42721000      4.08749000       1
I              -4.75991000     -5.14482000     -3.17319000      53
H              -0.06677550     -6.76267000     -4.01267000       1
I               1.89606000     -3.53190000     -6.78274000      53
I              -2.48734000     -3.34610000     -6.74591000      53
I              -7.06414000     -3.61163000      0.40600300      53
I              -0.20278900      7.33066000     -3.12715000      53
P              -0.04863380      8.09918000     -0.03119700      15
I              -4.25522000     -6.21012000      3.13349000      53
P              -4.26030000      3.39395000      6.30051000      15
I               4.66663000     -6.21012000      3.13349000      53
P               4.24084000      3.39394000     -6.40523000      15
I               2.31677000      5.49530000      5.92300000      53
H               3.85711000      6.93492000     -2.81402000       1
I              -2.06663000      5.68109000      5.95983000      53
H              -3.40533000      7.44881000     -2.36427000       1
P               4.66155000      3.39395000      6.30051000      15
I               2.60614000     -8.12522000     -0.39967100      53
P              -4.68101000      3.39394000     -6.40523000      15
H              -7.43094000      3.63523000     -2.72807000       1
H               7.86922000      2.93515000      2.37064000       1
H               3.83683000     -0.64288400     -7.93419000       1
H               0.62695800      3.87068000      7.94052000       1
I               6.23269000      6.28241000      0.47763300      53
I              -7.06414000      5.41556000      0.40600300      53
I               6.53045000      1.16749000     -5.95349000      53
P               8.87322000     -0.92800500     -0.03119700      15
I               1.89605000      5.49529000     -6.78274000      53
I               0.30190100      8.39596000      3.17952000      53
H               0.35393400      2.26453000      8.69307000       1
P              -8.97048000     -0.92800500     -0.03119700      15
H              -4.39125000      6.77814000      4.01905000       1
H              -5.06474000      6.93492000     -2.81402000       1
H              -3.80532000      7.11350000     -4.08107000       1
I              -6.77479000      0.98170600     -5.91666000      53
H              -1.07345000      2.59997000     -8.61825000       1
H               4.53059000      6.77814000      4.01905000       1
H               2.97295000      8.14880000      2.73436000       1
H              -8.31511000      2.42129000      2.82051000       1
C              -4.18254000      7.49597000     -3.12999000       6
H               4.38210000      7.83289000      1.84363000       1
I              -2.48734000      5.68109000     -6.74591000      53
I              -8.61995000     -0.63122800      3.17952000      53
H              -4.53975000      7.83289000      1.84363000       1
H               7.63506000      3.56571000     -3.81777000       1
I              -6.35408000      0.98171400      6.78908000      53
C               4.73931000      7.49597000     -3.12999000       6
C               0.19879900      3.34089000      8.79385000       6
I               8.71906000     -1.69652000     -3.12715000      53
H              -5.08502000     -0.64288400     -7.93419000       1
H              -3.38461000     -1.91368000      8.62467000       1
P              -4.26029000     -5.63324000      6.30051000      15
H              -3.17124000      8.07933000      3.82417000       1
H               0.62696000     -5.15651000      7.94052000       1
P               4.24084000     -5.63325000     -6.40523000      15
I              -0.11880900     -0.63123600     -9.52622000      53
I              -6.60508000     -3.53189000      5.92300000      53
H               4.03554000      0.00090731      8.65706000       1
H               5.51651000      7.44881000     -2.36427000       1
H              -7.43094000     -5.39196000     -2.72807000       1
H               8.26911000      2.59998000      4.08749000       1
N               3.99698000      8.31370000      2.68239000       7
H              -0.86607200      3.56571000      8.88797000       1
H              -8.84005000      3.31932000     -1.83728000       1
H              -3.59195000     -0.94786900     -8.88157000       1
N              -8.45497000      3.80011000     -2.67607000       7
P               4.66155000     -5.63324000      6.30051000      15
H               5.11653000      7.11350000     -4.08107000       1
C               8.64638000      2.98237000      3.13640000       6
I               6.85522000     -3.34610000      5.95983000      53
H              -3.34500000      0.46111100      9.08183000       1
H              -8.41413000     -4.22585000      2.43717000       1
P              -4.68101000     -5.63325000     -6.40523000      15
I               0.21792400     -1.69652000      9.57859000      53
C              -4.23612000      7.85451000      3.91825000       6
I               6.95116000      1.16750000      6.75225000      53
H               0.42828900     -4.51265000     -8.65073000       1
H               0.42828800      4.51454000     -8.65073000       1
H               9.00365000      3.31932000     -1.83728000       1
I               9.22375000     -0.63122800      3.17952000      53
I              -9.12464000     -1.69652000     -3.12715000      53
C               4.26502000     -1.17269000     -8.78749000       6
H               8.22955000     -4.05246000      3.63016000       1
H               4.10988000     -2.24906000     -8.68669000       1
H               3.95616000     -8.73939000     -2.43088000       1
H              -8.58794000     -4.19994000     -2.56260000       1
I               6.43451000     -3.34610000     -6.74591000      53
H              -4.88631000      0.00090731      8.65706000       1
C               4.68573000      7.85451000      3.91825000       6
P              -0.04863020     -9.95519000     -0.03119700      15
H               4.12996000     -8.71355000      2.56891000       1
H               8.85507000      2.26452000     -4.01267000       1
H              -8.41413000      4.80134000      2.43717000       1
H              -1.11301000     -4.05247000     -9.07558000       1
C              -4.65683000     -1.17269000     -8.78749000       6
N              -4.92486000      8.31370000      2.68239000       7
H              -3.76571000     -8.56609000     -3.62391000       1
C              -0.69617800      2.98236000     -9.56934000       6
H              -8.07285000     -4.51265000      4.05501000       1
H              -8.07285000      4.51454000      4.05501000       1
H              -8.98863000      2.26452000     -4.01267000       1
C               8.69994000      3.34089000     -3.91189000       6
P              -0.19772600      7.90753000     -6.29417000      15
H               7.63507000     -5.46148000     -3.81777000       1
I              -2.39139000     -7.85970000     -5.95349000      53
C              -9.19731000      2.98237000      3.13640000       6
I               0.30190400     -9.65842000      3.17952000      53
H               0.18603100      2.42128000     -9.88523000       1
