200
cutoff_factor=1.20000000 nneightol=1.20000000 Lattice="28.49755000       0.00000000       0.00000000       0.00000000      28.89217000       0.00000000       0.00000000       0.00000000      29.05507000" Properties=species:S:1:pos:R:3:Z:I:1
P               0.60925100      0.03878680      0.00988919      15
I              -1.93532000     -1.92036000      0.00176416      53
I              -1.10419000      2.67638000     -0.52579300      53
I               0.26664600      0.38856300      3.16323000      53
I               0.92212900     -0.47788100     -3.20464000      53
I               2.58741000     -2.53664000      0.44773300      53
I               3.33001000      1.83292000     -0.03977170      53
H              -2.63603000     -0.30227200     -2.81178000       1
H              -3.32422000     -0.76569100      1.85896000       1
H               0.75804100     -3.04172000     -2.75672000       1
H               1.20566000      3.71230000      2.25680000       1
H              -0.05939040     -3.92288000      2.26372000       1
H              -2.83367000      0.97341400      3.49907000       1
H               0.57147900     -4.37410000     -1.72777000       1
N              -4.09033000     -0.32749300      2.41266000       7
H               0.43212700      3.13446000     -3.59183000       1
H               4.41429000      0.41864600      1.81153000       1
C              -3.63351000     -0.62194500     -3.12199000       6
H              -4.50017000      0.41864600      1.81153000       1
H              -4.08850000     -1.25328000     -2.35549000       1
H               4.09264000     -1.04618000      2.55430000       1
N               0.89018400     -4.07085000     -2.66731000       7
H               3.46692000      0.32281100     -3.58178000       1
H               0.68593300      4.63877000     -1.72777000       1
H               4.34202000      1.11231000     -2.40371000       1
H               1.53625000     -3.76375000      3.07094000       1
C              -3.59662000      0.22096900      3.70981000       6
H              -0.53577300      3.42043000      3.88346000       1
H              -4.57243000      1.11231000     -2.40371000       1
C               0.71868200     -4.44522000      2.82518000       6
H              -3.17297000     -0.59929300      4.29368000       1
N               4.82413000     -0.32749300      2.41266000       7
H               1.91515000     -4.24228000     -2.74640000       1
C               0.83313600      4.56764000      2.82518000       6
H               4.82595000     -1.25328000     -2.35549000       1
H              -3.58530000     -1.15256000     -4.07565000       1
N               4.43102000      0.58948800     -3.29852000       7
H              -4.82182000     -1.04618000      2.55430000       1
H               0.05506360      5.08999000      2.26372000       1
N              -4.48343000      0.58948800     -3.29852000       7
C               0.24874600      4.20377000     -3.71962000       6
N               1.00464000      4.94202000     -2.66731000       7
H              -0.81451900      4.42480000     -3.60150000       1
N               0.24459700      4.06954000      4.09431000       7
P              -3.69477000      4.46334000      0.01698240      15
H              -4.06139000      1.20719000     -4.02001000       1
H               1.09121000     -5.30056000      2.25680000       1
H               2.02960000      4.77058000     -2.74640000       1
I              -5.58445000      1.83292000     -0.03977170      53
H              -0.92897300     -4.58807000     -3.60150000       1
P              -3.80922000     -4.54953000      0.01698240      15
H               5.59023000     -0.76569100      1.85896000       1
H               0.95584300      3.56191000      4.66141000       1
C               0.13429200     -4.80910000     -3.71962000       6
C               5.28095000     -0.62194500     -3.12199000       6
H              -4.43999000      0.67035200      4.23895000       1
I              -3.36510000      4.09765000      3.17028000      53
H               4.47447000      0.67035200      4.23895000       1
H              -0.24827300     -4.16084000      4.66838000       1
H               1.65070000      5.24912000      3.07094000       1
P               0.63641700     -0.07573440      6.31546000      15
P               0.39086500     -0.17089500     -6.39601000      15
H               4.85307000      1.20719000     -4.02001000       1
N               0.13014300     -4.94333000      4.09431000       7
I              -1.21865000     -6.33649000     -0.52579300      53
C               5.31784000      0.22096900      3.70981000       6
H               0.48795500     -4.47474000     -4.69733000       1
I              -2.12344000      1.84255000     -5.86946000      53
H              -5.44753000      0.32281100     -3.58178000       1
H               0.60240900      4.53812000     -4.69733000       1
H               0.87249500      5.97114000     -2.75672000       1
H              -0.13381900      4.85203000      4.66838000       1
I              -3.47955000     -4.91522000      3.17028000      53
H               5.32915000     -1.15256000     -4.07565000       1
I              -6.32704000     -2.53664000      0.44773300      53
P               5.10523000     -4.54953000      0.01698240      15
H              -0.65022700     -5.59244000      3.88346000       1
I               3.08282000     -2.02621000      5.78855000      53
P               5.21969000      4.46334000      0.01698240      15
H               6.27842000     -0.30227200     -2.81178000       1
H               0.31767300     -5.87841000     -3.59183000       1
I              -4.44943000     -4.33596000     -3.18163000      53
I              -1.33763000     -2.58665000      6.35189000      53
I               4.46502000     -4.33596000     -3.18163000      53
I               2.70187000      6.47623000      0.44773300      53
I              -1.58319000     -2.68181000     -6.35958000      53
H               6.08079000      0.97341400      3.49907000       1
I              -4.33498000      4.67690000     -3.18163000      53
H               5.74149000     -0.59929300      4.29368000       1
I               2.33414000      2.42450000     -6.37648000      53
H               0.84138900     -5.45095000      4.66141000       1
I               6.97913000     -1.92036000      0.00176416      53
I               4.57948000      4.67690000     -3.18163000      53
I               2.57969000      2.51966000      6.33499000      53
I              -1.82087000      7.09251000      0.00176416      53
I              -1.87789000      1.93771000      6.84201000      53
I               5.54936000      4.09765000      3.17028000      53
I               2.83727000     -2.12137000     -6.92292000      53
I               3.21555000     -7.17994000     -0.03977170      53
I               5.43490000     -4.91522000      3.17028000      53
I               7.81026000      2.67638000     -0.52579300      53
P              -8.30520000      0.03878680      0.00988919      15
I              -5.83163000     -2.02621000      5.78855000      53
I              -7.99233000     -0.47788100     -3.20464000      53
H              -6.99931000     -4.24228000     -2.74640000       1
P              -3.82130000      4.52796000      6.31395000      15
P              -3.93575000     -4.48491000      6.31395000      15
P              -4.06685000      4.43280000     -6.39752000      15
H               0.71029000      3.46675000     -8.05006000       1
H              -6.88485000      4.77058000     -2.74640000       1
H              -7.37820000     -3.76375000      3.07094000       1
H              -7.70879000      3.71230000      2.25680000       1
P              -4.18130000     -4.58007000     -6.39752000      15
I              -6.21259000      6.47623000      0.44773300      53
P               0.49479700     -8.97408000      0.00988919      15
H              -3.97405000      7.75958000     -2.35549000       1
H              -3.20977000      8.24717000      1.85896000       1
P               0.72370500      9.05165000      0.00988919      15
I              -1.46873000      6.33105000     -6.35958000      53
H              -3.41852000     -0.69445300     -8.41779000       1
H              -0.49382600     -4.25600000     -8.04309000       1
I              -1.22318000      6.42621000      6.35189000      53
H              -8.15641000     -3.04172000     -2.75672000       1
H               0.73350800     -4.37958000      8.01414000       1
I               6.79102000      1.84255000     -5.86946000      53
I              -5.69890000     -7.17994000     -0.03977170      53
P               4.84761000      4.43280000     -6.39752000      15
I               1.03658000      8.53498000     -3.20464000      53
P               4.73315000     -4.58007000     -6.39752000      15
I               0.15219300     -8.62430000      3.16323000      53
P               4.97871000     -4.48491000      6.31395000      15
I              -8.64781000      0.38856300      3.16323000      53
H              -2.94812000     -8.03945000      3.49907000       1
H               4.22757000     -7.90056000     -2.40371000       1
P               5.09316000      4.52796000      6.31395000      15
H               0.84796200      4.63328000      8.01414000       1
I              -6.33476000      2.51966000      6.33499000      53
H              -3.33975000     -1.05740000      8.63582000       1
H              -0.37937200      4.75687000     -8.04309000       1
H               4.20709000      7.96669000      2.55430000       1
N              -8.02427000     -4.07085000     -2.66731000       7
I               2.46524000     -6.49320000      6.33499000      53
I               2.21969000     -6.58836000     -6.37648000      53
I              -6.07718000     -2.12137000     -6.92292000      53
H              -0.78132600      3.32527000     -8.82801000       1
H              -7.26375000      5.24912000      3.07094000       1
I              -6.58031000      2.42450000     -6.37648000      53
H               4.22891000      0.57519200     -8.47252000       1
N              -0.00095541      3.97438000     -8.61716000       7
H              -2.52158000      8.71059000     -2.81178000       1
H              -4.68689000     -7.90056000     -2.40371000       1
H               4.94040000      7.75958000     -2.35549000       1
H              -3.47085000      7.86031000     -4.07565000       1
P               9.52371000      0.03878680      0.00988919      15
I              -2.23789000     -7.17031000     -5.86946000      53
I               0.02109370      0.29340300     -9.54824000      53
H              -8.34298000     -4.37410000     -1.72777000       1
H              -3.81584000      1.30235000      8.69145000       1
I               1.16768000     -0.38272100      9.50683000      53
H              -4.70736000      7.96669000      2.55430000       1
H              -8.22852000      4.63877000     -1.72777000       1
C              -3.51905000      8.39092000     -3.12199000       6
I               3.19728000      6.98666000      5.78855000      53
H               0.67768000      3.22962000      9.11964000       1
H              -4.68554000      0.57519200     -8.47252000       1
N              -7.90982000      4.94202000     -2.66731000       7
C              -8.08132000      4.56764000      2.82518000       6
H              -7.82324000     -5.30056000      2.25680000       1
I               9.18110000      0.38856300      3.16323000      53
H              -4.17584000     -7.80567000     -4.02001000       1
H              -8.48233000      3.13446000     -3.59183000       1
C              -8.19577000     -4.44522000      2.82518000       6
H              -3.07922000      0.87825400     -9.21240000       1
H               4.29983000     -8.59422000      1.81153000       1
C              -3.84217000      0.12580900     -9.00166000       6
H               0.59583600     -5.54611000     -8.05006000       1
H               8.37868000      3.42043000      3.88346000       1
N              -3.97587000      8.68537000      2.41266000       7
H               3.71247000      0.41797200      9.12969000       1
H              -7.95861000      3.56191000      4.66141000       1
H               7.98548000     -4.58807000     -3.60150000       1
H               8.09994000      4.42480000     -3.60150000       1
H              -4.61462000     -8.59422000      1.81153000       1
I               0.38110000      9.40143000      3.16323000      53
H              -3.05851000      8.41357000      4.29368000       1
H               8.85506000     -3.92288000      2.26372000       1
H               4.73861000     -7.80567000     -4.02001000       1
C               0.49429900      4.29893000      8.99185000       6
H               3.35247000     -8.69005000     -3.58178000       1
I               7.69581000     -6.33649000     -0.52579300      53
N              -0.11540900     -5.03849000     -8.61716000       7
I               7.03657000      1.93771000      6.84201000      53
N               4.31657000     -8.42338000     -3.29852000       7
I               7.09358000      7.09251000      0.00176416      53
I              -1.99234000     -7.07515000      6.84201000      53
I               0.80767500     -9.49074000     -3.20464000      53
H              -8.97384000     -3.92288000      2.26372000       1
I               7.33127000     -2.68181000     -6.35958000      53
H               5.49594000     -0.69445300     -8.41779000       1
H              -2.75048000     -9.31514000     -2.81178000       1
