200
cutoff_factor=1.20000000 nneightol=1.20000000 Lattice="28.82692000       0.00000000       0.00000000       0.00000000      29.21528000       0.00000000       0.00000000       0.00000000      26.93905000" Properties=species:S:1:pos:R:3:Z:I:1
H              -0.75393900      0.91246500     -0.98451800       1
H              -1.30193000     -0.80688200      0.64845800       1
C              -1.51501000      0.16239400     -1.21121000       6
N              -2.05410000     -0.36886800      0.07399780       7
H              -1.07986000     -0.66813700     -1.76975000       1
H              -2.48110000      0.38962700      0.64844300       1
I               2.48896000      0.48898200     -0.81222600      53
H              -2.78423000     -1.08842000     -0.07503530       1
H              -2.33910000      0.60957900     -1.76979000       1
I               0.15171500     -2.08425000      2.31636000      53
P               2.67497000     -0.11976400      2.40745000      15
I               0.65844900      2.30438000      2.87502000      53
H               2.56558000      3.01330000     -0.13934600       1
I              -1.12999000      4.16128000     -0.81222500      53
H               1.39516000      4.20093000     -0.13937100       1
I               0.37818100     -1.86106000     -4.06461000      53
H               2.64112000     -3.31238000     -1.49981000       1
N               2.42431000      4.04461000     -0.18272600       7
H              -1.01988000     -0.60892000      4.61114000       1
I              -3.73710000      1.86180000      2.31630000      53
H               1.26431000     -4.75877000     -0.13937100       1
P               2.92674000      0.12049300     -3.97347000      15
I              -1.26085000     -4.79843000     -0.81222500      53
H              -2.27913000      0.66879000      4.61115000       1
H               2.44732000      4.06725000     -2.28609000       1
P              -1.73598000      4.35610000      2.40745000      15
H               2.76181000     -4.45351000      0.62046500       1
H               2.89267000      4.50620000      0.62046500       1
C               2.82825000     -4.38807000     -1.46428000       6
I               1.03441000      2.67489000     -4.60432000      53
N               2.29345000     -4.91509000     -0.18272600       7
I              -4.39331000     -2.67415000      1.77660000      53
C              -1.84395000     -0.16170900      5.16972000       6
P              -1.86684000     -4.60361000      2.40745000      15
I               4.56732000     -2.67415000      1.77660000      53
C               2.95911000      4.57164000     -1.46428000       6
I              -3.51062000      2.08497000     -4.06456000      53
I              -4.01737000     -2.30366000     -3.50592000      53
H              -0.87779400     -0.38886500     -5.73249000       1
H               2.31646000     -4.89245000     -2.28609000       1
I               5.22353000      1.86180000      2.31630000      53
H              -2.60501000     -0.91176900      5.39649000       1
P              -1.62293000     -4.35537000     -3.97347000      15
H               4.03194000      4.36881000     -1.49979000       1
H              -2.05697000      0.80763500     -5.73248000       1
H               3.90109000     -4.59090000     -1.49979000       1
P              -1.49207000      4.60434000     -3.97347000      15
H               6.17640000     -1.08842000     -0.07503530       1
I               3.11275000     -0.48824200      5.56868000      53
H              -0.57468600      1.08917000      6.30578000       1
H               2.43472000     -5.94641000     -0.13934600       1
N              -1.30481000      0.36960000     -6.30695000       7
H               2.77198000      5.64732000     -1.49981000       1
I               4.94326000     -2.30366000     -3.50592000      53
H               6.47953000      0.38962700      0.64844300       1
I              -6.47167000      0.48898200     -0.81222600      53
H              -0.57469300      1.08914000     -6.45605000       1
H               3.15451000     -4.06648000      4.09484000       1
N              -1.30481000      0.36962400      6.45488000       7
H               2.96063000      3.31314000      4.88107000       1
P              -6.28567000     -0.11976400      2.40745000      15
H               1.56982000     -4.36804000      4.88103000       1
H              -4.92869000      4.36881000     -1.49979000       1
H               6.62154000      0.60957900     -1.76979000       1
H               1.70068000      4.59167000      4.88103000       1
N               6.90653000     -0.36886800      0.07399780       7
H              -5.05955000     -4.59090000     -1.49979000       1
H              -6.39505000      3.01330000     -0.13934600       1
H              -0.87778700     -0.38884100      7.02934000       1
I               5.45001000      2.08497000     -4.06456000      53
C               2.77351000      4.38883000      4.91661000       6
H               3.28537000      4.89322000      4.09484000       1
C               2.64266000     -4.57088000      4.91661000       6
P              -6.03389000      0.12049300     -3.97347000      15
I               0.28257300      6.87545000      2.31636000      53
I               0.52759000     -6.65533000      2.87502000      53
H              -6.31951000     -3.31238000     -1.49981000       1
I              -2.22892000     -4.16054000      5.56869000      53
H              -2.05696000      0.80765900      7.02935000       1
C               7.44562000      0.16239400     -1.21121000       6
H               3.03611000     -3.01259000      6.24161000       1
H              -6.06797000      4.50620000      0.62046500       1
I              -2.09807000      4.79917000      5.56869000      53
H              -6.19882000     -4.45351000      0.62046500       1
C              -6.13238000     -4.38807000     -1.46428000       6
C              -6.00153000      4.57164000     -1.46428000       6
N              -6.53633000      4.04461000     -0.18272600       7
H               7.65870000     -0.80688200      0.64845800       1
H               3.03610000     -3.01261000     -6.52022000       1
H               2.70896000     -4.50553000     -5.76048000       1
I              -4.26245000      6.28556000      1.77660000      53
C              -1.84396000     -0.16173300     -7.59211000       6
H               2.83982000      4.45418000     -5.76048000       1
I               0.90355100     -6.28482000     -4.60432000      53
I               3.11274000     -0.48826600     -7.19315000      53
H              -2.60502000     -0.91179300     -7.36534000       1
H               2.82978000     -5.64657000      4.88107000       1
H              -6.51332000      4.06725000     -2.28609000       1
I               4.69818000      6.28556000      1.77660000      53
N               3.17738000     -4.04390000      6.19820000       7
I              -5.84789000     -0.48824200      5.56868000      53
H               7.88077000     -0.66813700     -1.76975000       1
H               6.68151000      0.66879000      4.61115000       1
H              -0.88479700     -8.04724000     -0.98451800       1
H              -5.80612000     -4.06648000      4.09484000       1
I               0.50903900      7.09865000     -4.06461000      53
H              -1.01989000     -0.60894400     -8.15069000       1
H              -1.17107000      8.15282000      0.64845800       1
N              -6.66719000     -4.91509000     -0.18272600       7
H              -2.65338000      7.87128000     -0.07503530       1
H               8.20669000      0.91246500     -0.98451800       1
N               3.17737000     -4.04392000     -6.56363000       7
H               6.35562000     -0.91176900      5.39649000       1
I              -3.86796000     -7.09791000      2.31630000      53
H              -6.00000000      3.31314000      4.88107000       1
I              -3.88651000      6.65605000     -3.50592000      53
H              -2.27913000      0.66876600     -8.15068000       1
H              -6.18866000      5.64732000     -1.49981000       1
H              -0.94900100      8.29157000     -1.76975000       1
H              -5.67526000      4.89322000      4.09484000       1
H              -6.64418000     -4.89245000     -2.28609000       1
N               3.30824000      4.91581000      6.19820000       7
I              -2.22893000     -4.16056000     -7.19314000      53
H               4.20651000     -4.20022000      6.24162000       1
I               1.03442000      2.67491000      8.15752000      53
H              -7.56547000      4.20093000     -0.13937100       1
H               2.70897000     -4.50551000      7.00136000       1
H               2.83983000      4.45420000      7.00136000       1
P               7.22465000      4.35610000      2.40745000      15
I              -3.64148000     -6.87474000     -4.06456000      53
P               7.09379000     -4.60361000      2.40745000      15
C               7.11668000     -0.16170900      5.16972000       6
N              -1.92325000      8.59084000      0.07399780       7
H               4.20651000     -4.20025000     -6.52021000       1
H              -6.52591000     -5.94641000     -0.13934600       1
I               2.35811000     -8.47072000     -0.81222600      53
N               3.30823000      4.91579000     -6.56363000       7
H              -2.46996000     -8.35013000     -1.76979000       1
I              -2.09807000      4.79914000     -7.19314000      53
H              -4.75412000     -4.20022000      6.24162000       1
I               0.37818800     -1.86104000      8.69722000      53
I               7.83064000      4.16128000     -0.81222500      53
H               4.33737000      4.75948000      6.24162000       1
H              -2.61196000     -8.57008000      0.64844300       1
H               6.90367000      0.80763500     -5.73248000       1
C              -1.64587000     -8.79731000     -1.21121000       6
I               5.09267000     -7.09791000      2.31630000      53
C              -6.18712000      4.38883000      4.91661000       6
H               2.96063000      3.31312000     -7.88076000       1
H              -7.69633000     -4.75877000     -0.13937100       1
I               5.07412000      6.65605000     -3.50592000      53
I              -8.30218000      2.30438000      2.87502000      53
H              -4.75413000     -4.20025000     -6.52021000       1
I               7.69978000     -4.79843000     -0.81222500      53
H              -4.62326000      4.75948000      6.24162000       1
H              -5.92452000     -3.01259000      6.24161000       1
H               1.56982000     -4.36806000     -7.88080000       1
H               4.33737000      4.75946000     -6.52021000       1
H               3.16697000      5.94712000      6.24161000       1
H               7.94075000     -0.60892000      4.61114000       1
C              -6.31798000     -4.57088000      4.91661000       6
P               2.92675000      0.12051700      8.78836000      15
H               1.70067000      4.59164000     -7.88080000       1
I              -5.84789000     -0.48826600     -7.19315000      53
H              -4.62327000      4.75946000     -6.52021000       1
C              -1.38415000      9.12210000     -1.21121000       6
H              -5.92453000     -3.01261000     -6.52022000       1
I              -8.80892000     -2.08425000      2.31636000      53
H               3.16696000      5.94710000     -6.52022000       1
N              -5.78325000     -4.04390000      6.19820000       7
C               2.77351000      4.38880000     -7.84522000       6
P               7.33770000     -4.35537000     -3.97347000      15
C               2.64265000     -4.57090000     -7.84522000       6
H              -6.12081000      4.45418000     -5.76048000       1
I              -7.92622000      2.67489000     -4.60432000      53
H              -0.88902300      8.35079000      4.61114000       1
N              -2.18496000     -9.32857000      0.07399780       7
P               2.80582000      8.83994000      2.40745000      15
I               5.31915000     -6.87474000     -4.06456000      53
I              -3.51061000      2.08499000      8.69728000      53
H              -6.25167000     -4.50553000     -5.76048000       1
I               9.11235000     -2.08425000      2.31636000      53
P               7.46856000      4.60434000     -3.97347000      15
N              -5.78326000     -4.04392000     -6.56363000       7
H              -6.13086000     -5.64657000      4.88107000       1
H              -2.35024000      9.34933000      0.64844300       1
I               6.73171000     -4.16054000      5.56869000      53
I              -8.58245000     -1.86106000     -4.06461000      53
N              -5.65240000      4.91581000      6.19820000       7
P               2.54411000     -9.07947000      2.40745000      15
H               6.35561000     -0.91179300     -7.36534000       1
H              -2.40999000     -8.29092000      4.61115000       1
H              -9.71457000      0.91246500     -0.98451800       1
I               2.61982000      9.44869000     -0.81222600      53
H              -1.21072000     -9.62784000     -1.76975000       1
H              -7.39081000     -4.36804000      4.88103000       1
H              -7.25995000      4.59167000      4.88103000       1
H               6.90367000      0.80765900      7.02935000       1
H              -1.43279000     -9.76659000      0.64845800       1
H               8.08284000     -0.38886500     -5.73249000       1
