200
cutoff_factor=1.20000000 nneightol=1.20000000 Lattice="29.01422000       0.00000000       0.00000000       0.00000000      28.49899000       0.00000000       0.00000000       0.00000000      28.53428000" Properties=species:S:1:pos:R:3:Z:I:1
P               1.10397000     -0.45576100      1.31178000      15
I              -1.59752000      0.84138100      0.06794700      53
H               1.29207000      0.99147300     -2.50437000       1
I               1.32367000     -2.41361000     -1.20988000      53
I               2.89055000      1.67224000     -0.14801000      53
H              -0.19983200      0.60282700     -3.41910000       1
H              -3.12810000     -0.98221600     -1.33063000       1
H              -1.83752000     -2.95529000     -0.87696600       1
C               0.66154100      1.27108000     -3.34987000       6
H              -2.75614000      1.26302000      2.41404000       1
H               0.33474800      2.30807000     -3.25906000       1
I              -0.63652100     -2.72459000      2.87829000      53
I               0.74948200      1.41743000      3.91809000      53
C              -2.92850000     -3.00541000     -0.86268300       6
H               1.12266000      4.14229000      0.15748100       1
N              -3.46244000     -1.89476000     -1.70159000       7
H              -3.30271000     -2.88096000      0.15561100       1
H              -1.82184000      1.83746000      3.67141000       1
H              -3.09820000     -1.99969000     -2.67293000       1
H               1.06386000      4.00970000      1.94681000       1
N              -2.79068000      1.82601000      3.28860000       7
I               3.69167000     -1.96488000      2.49105000      53
P              -3.43375000      3.17669000     -1.34833000      15
H               1.70156000     -4.54549000      0.39936200       1
C               0.89411600      4.66443000      1.08906000       6
N               1.46470000      1.13857000     -4.60132000       7
H               1.81566000      0.16088200     -4.71673000       1
H               4.35869000     -1.90420000     -1.72202000       1
H              -3.04063000      2.79772000      3.01858000       1
H              -0.13669600      5.02573000      1.07997000       1
H              -4.49652000     -1.90420000     -1.72202000       1
H              -3.27138000     -3.95287000     -1.28359000       1
I              -0.85792900      4.77965000     -2.25074000      53
H               1.61559000     -4.66377000      2.07084000       1
I              -3.43906000      1.36233000     -3.94040000      53
H               2.28949000      1.75890000     -4.59512000       1
H               0.82294300     -2.25511000      5.03865000       1
N               1.82495000     -5.19296000      1.20500000       7
I              -1.58141000     -2.59181000     -4.77563000      53
H               0.88307600      1.33304000     -5.44264000       1
H              -3.44484000      0.24338500      4.52065000       1
H               4.10456000      1.26667000      3.83532000       1
C              -3.75277000      1.26319000      4.27963000       6
P               1.04572000     -4.21629000     -3.89430000      15
H               5.72711000     -0.98221600     -1.33063000       1
N               5.39277000     -1.89476000     -1.70159000       7
I              -5.16354000     -1.96488000      2.49105000      53
H              -0.11624900     -6.00727000      1.07997000       1
I              -3.44593000      4.93779000      1.45463000      53
I              -5.96466000      1.67224000     -0.14801000      53
N               1.80450000      5.84003000      1.20500000       7
H              -4.75065000      1.26667000      3.83532000       1
H               5.55251000     -2.88096000      0.15561100       1
H               2.81612000     -5.50291000      1.24223000       1
H               2.79567000      5.53008000      1.24223000       1
P               5.42146000      3.17669000     -1.34833000      15
I               2.85276000     -2.00658000     -5.46602000      53
N               1.40457000     -2.44958000      5.87997000       7
C               0.91456200     -6.36856000      1.08906000       6
H               2.22936000     -1.82924000      5.88617000       1
P              -3.30872000     -4.08996000      3.99569000      15
H              -3.72841000      1.89157000      5.17230000       1
H               5.75701000     -1.99969000     -2.67293000       1
H               6.09907000      1.26302000      2.41404000       1
I              -0.83748200     -6.25334000     -2.25074000      53
C               5.92671000     -3.00541000     -0.86268300       6
H               1.68111000      6.48750000      0.39936200       1
C               5.10244000      1.26319000      4.27963000       6
I               5.41615000      1.36233000     -3.94040000      53
H               1.59514000      6.36922000      2.07084000       1
H               1.75553000     -3.42726000      5.76456000       1
H               5.58383000     -3.95287000     -1.28359000       1
I               3.57109000      5.27279000     -2.81375000      53
H               1.14311000     -6.89071000      0.15748100       1
H               5.41037000      0.24338500      4.52065000       1
H               5.81458000      2.79772000      3.01858000       1
N               6.06453000      1.82601000      3.28860000       7
I              -3.42548000     -6.09521000      1.45463000      53
P              -3.24859000     -0.50181400     -6.48560000      15
I               7.25769000      0.84138100      0.06794700      53
H               0.27461500     -1.28008000      7.22223000       1
I               3.59153000     -5.76021000     -2.81375000      53
H               1.08431000     -7.02329000      1.94681000       1
P               0.96514100      3.22856000      6.58699000      15
I               5.40929000      4.93779000      1.45463000      53
C               0.60140800     -2.31707000      7.13142000       6
H               5.12680000      1.89157000      5.17230000       1
H               7.01770000     -2.95529000     -0.87696600       1
H              -0.25996400     -2.98532000      7.06219000       1
I              -1.66199000      4.85304000      5.70566000      53
I              -0.57638800      0.86355500     -7.60300000      53
I              -3.49919000     -2.22581000      6.54089000      53
H              -3.38471000      3.83153000     -5.96064000       1
P              -7.75124000     -0.45576100      1.31178000      15
I               2.77218000      5.43827000      5.01527000      53
H              -3.29183000      7.08013000     -1.28359000       1
P               1.02527000      6.81671000     -3.89430000      15
P               5.54649000     -4.08996000      3.99569000      15
I              -5.28412000      5.27279000     -2.81375000      53
I              -7.53154000     -2.41361000     -1.20988000      53
I               2.79263000     -5.59473000      5.01527000      53
H              -7.56314000      0.99147300     -2.50437000       1
H               7.03337000      1.83746000      3.67141000       1
H              -6.56572000      1.75890000     -4.59512000       1
H              -6.03909000     -5.50291000      1.24223000       1
I               5.42973000     -6.09521000      1.45463000      53
I               0.80961500      5.00558000     -6.56320000      53
I              -5.26368000     -5.76021000     -2.81375000      53
H              -6.05954000      5.53008000      1.24223000       1
H              -1.85796000      8.07770000     -0.87696600       1
I              -6.00245000     -2.00658000     -5.46602000      53
I              -0.91806200      1.19151000      8.23055000      53
H              -3.66828000      5.47971000     -5.30899000       1
H              -7.03955000      0.16088200     -4.71673000       1
H               1.23193000     -2.59667000      7.97692000       1
H              -7.15365000     -4.54549000      0.39936200       1
H              -3.64783000     -5.55328000     -5.30899000       1
I              -1.64154000     -6.17995000      5.70566000      53
P               5.60662000     -0.50181400     -6.48560000      15
C              -2.94895000      8.02759000     -0.86268300       6
I               3.51095000      1.68464000      7.66754000      53
H               1.67572000     -1.07563000     -8.41045000       1
P              -3.41330000     -7.85631000     -1.34833000      15
P              -3.32917000      6.94304000      3.99569000      15
C              -3.69264000      4.85133000     -6.20166000       6
I               5.35602000     -2.22581000      6.54089000      53
H              -7.73255000      4.14229000      0.15748100       1
N              -7.39051000      1.13857000     -4.60132000       7
I               1.30322000      8.61939000     -1.20988000      53
H              -3.32315000      8.15204000      0.15561100       1
I              -0.65696800      8.30840000      2.87829000      53
N              -7.03026000     -5.19296000      1.20500000       7
H              -7.23962000     -4.66377000      2.07084000       1
H              -1.76171000      5.42561000     -6.80988000       1
C              -8.19367000      1.27108000     -3.34987000       6
I               0.83006200     -6.02742000     -6.56320000      53
H               5.47050000      3.83153000     -5.96064000       1
I               3.75180000      1.62327000     -7.99024000      53
H              -7.79135000      4.00970000      1.94681000       1
H              -1.74126000     -5.60739000     -6.80988000       1
H              -6.62585000     -1.82924000      5.88617000       1
I               7.27380000     -2.59181000     -4.77563000      53
H               5.56338000      7.08013000     -1.28359000       1
I              -8.10573000      1.41743000      3.91809000      53
I               8.21869000     -2.72459000      2.87829000      53
H               4.16469000      4.85482000     -6.64597000       1
H               5.18693000      5.47971000     -5.30899000       1
N              -7.05071000      5.84003000      1.20500000       7
H               1.14444000     -3.43515000     -8.53448000       1
H              -2.96005000     -4.64712000     -7.46271000       1
H              -3.02019000     -8.23527000      3.01858000       1
H               5.20738000     -5.55328000     -5.30899000       1
C              -7.96110000      4.66443000      1.08906000       6
H               0.35519400     -8.72493000     -3.25906000       1
H               8.65538000      0.60282700     -3.41910000       1
N              -2.73054000      5.41415000     -7.19268000       7
H              -8.52046000      2.30807000     -3.25906000       1
C               5.16257000      4.85133000     -6.20166000       6
H              -4.69052000      4.85482000     -6.64597000       1
C              -3.67219000     -6.18166000     -6.20166000       6
I              -5.34426000      1.68464000      7.66754000      53
N              -2.71010000     -5.61884000     -7.19268000       7
I              -6.08303000      5.43827000      5.01527000      53
I               7.99728000      4.77965000     -2.25074000      53
N               1.88508000     -1.60482000     -9.27629000       7
I              -5.10341000      1.62327000     -7.99024000      53
P               5.44191000     -7.85631000     -1.34833000      15
I              -6.06259000     -5.59473000      5.01527000      53
H              -7.17410000      6.48750000      0.39936200       1
P              -7.80949000     -4.21629000     -3.89430000      15
H              -9.05504000      0.60282700     -3.41910000       1
H               1.73508000      7.60573000      5.76456000       1
H              -0.05611650     -2.41912000     -9.40132000       1
P               5.52604000      6.94304000      3.99569000      15
H              -7.97214000      1.33304000     -5.44264000       1
H              -8.03227000     -2.25511000      5.03865000       1
P               1.16410000      3.13239000     -9.16951000      15
H              -7.09968000     -3.42726000      5.76456000       1
P              -3.49388000     -0.41146000      9.13296000      15
H              -2.69601000      4.85116000     -8.06725000       1
N              -7.45065000     -2.44958000      5.87997000       7
I               2.91099000     -9.36075000     -0.14801000      53
I              -1.60185000      8.44119000     -4.77563000      53
C               0.97469500     -2.78041000     -9.39223000       6
H               5.53206000      8.15204000      0.15561100       1
H               2.87625000     -1.91477000     -9.23906000       1
H              -7.26007000      6.36922000      2.07084000       1
H              -3.11864000      9.03330000     -2.67293000       1
N              -3.48289000      9.13824000     -1.70159000       7
H              -3.36426000     -7.20146000     -5.96064000       1
I              -3.36535000     -2.50706000     -9.02666000      53
H               4.18514000     -6.17818000     -6.64597000       1
C               5.90626000      8.02759000     -0.86268300       6
H               9.18996000      2.30807000     -3.25906000       1
H              -3.17878000      5.44516000      7.80836000       1
P               9.95918000     -0.45576100      1.31178000      15
H              -1.80139000     -9.19553000      3.67141000       1
I               3.67122000      9.06811000      2.49105000      53
H              -3.15833000     -5.58784000      7.80836000       1
H               8.71852000      5.02573000      1.07997000       1
