200
cutoff_factor=1.20000000 nneightol=1.20000000 Lattice="29.98979000       0.00000000       0.00000000       0.00000000      29.42536000       0.00000000       0.00000000       0.00000000      28.33391000" Properties=species:S:1:pos:R:3:Z:I:1
I              -0.80885600      1.11018000     -0.07716900      53
H              -1.02400000     -2.19985000      1.02918000       1
P               1.30743000      0.05988200     -2.30825000      15
H               0.65346000     -2.33707000      1.09982000       1
N              -0.24905500     -2.74339000      1.43459000       7
H              -2.91964000      0.20411100     -1.28962000       1
I               2.83109000     -1.50998000      0.08883940      53
H               2.58072000      1.87153000      0.98559000       1
H              -0.23981200     -1.72668000      3.28278000       1
I              -0.58808700     -2.48712000     -2.71052000      53
H              -0.30083500     -3.71884000      1.06410000       1
H               1.49020000      1.80677000      3.15637000       1
C              -0.30251900     -2.75616000      2.92560000       6
N              -3.90419000     -0.12826900     -1.36470000       7
C               3.15806000      2.04998000      1.89472000       6
H              -3.89861000     -1.16877000     -1.30478000       1
P              -2.45032000      2.70105000      2.25687000      15
H               3.62638000      1.12404000      2.23351000       1
H              -4.37662000      0.19591900     -0.49703500       1
N               2.22379000      2.51272000      2.95626000       7
I               3.10367000      2.67266000     -1.83261000      53
I              -0.70474100      0.99814300      4.45414000      53
H               1.71573000      3.38264000      2.68289000       1
H               0.54287300     -3.34037000      3.29628000       1
H              -1.24505000     -3.21299000      3.23299000       1
I              -0.33197900      1.73484000     -4.54030000      53
H               0.70576500      4.41728000     -1.96480000       1
I              -4.59450000      0.32511000      2.12827000      53
H               3.91021000      2.82445000      1.72820000       1
H              -0.13699600      3.97104000     -3.33354000       1
C              -4.58256000      0.36915500     -2.59688000       6
H              -4.04419000     -0.01003080     -3.46836000       1
H               3.15966000     -3.92255000     -1.75729000       1
I              -4.06190000     -3.47038000     -0.13492900      53
H               2.70872000      2.68869000      3.86253000       1
H              -4.56572000      1.46052000     -2.57985000       1
I              -0.17816800      4.97644000      2.31799000      53
N               0.16858400      4.79200000     -2.76488000       7
H              -1.65756000      5.01279000     -1.73060000       1
I               3.37027000     -1.04104000     -4.44432000      53
I               3.04019000     -1.47351000      4.57774000      53
H              -0.96735900     -2.48569000     -5.20877000       1
H               2.26292000     -4.41134000     -3.23292000       1
I              -4.06547000      4.36020000      0.05637890      53
C               2.78101000     -4.76569000     -2.33865000       6
H               5.44154000      0.00476661     -2.59198000       1
H               2.11588000     -5.38224000     -1.73060000       1
I              -0.29203200     -6.03482000      0.05637890      53
P               5.01466000     -2.57077000      2.27431000      15
P              -2.32617000     -5.17540000     -2.22576000      15
C              -0.99242500      5.62933000     -2.33865000       6
H              -5.61149000      0.00476661     -2.59198000       1
H              -2.76617000      0.11241700      5.71683000       1
H               0.83733900      5.33307000     -3.35447000       1
H               2.35846000      2.00767000     -5.83830000       1
H               6.67641000      0.19591900     -0.49703500       1
H              -0.61377400      6.47247000     -1.75729000       1
I               6.45853000      0.32511000      2.12827000      53
N              -1.45229000     -2.66165000     -6.11503000       7
I               3.59527000     -5.41858000      2.31799000      53
H              -1.96035000     -1.79173000     -6.38841000       1
I              -3.93548000     -3.48581000      4.53100000      53
P              -6.03837000     -2.57077000      2.27431000      15
H              -3.74050000     -1.24961000      5.73776000       1
H              -1.51052000      5.98368000     -3.23292000       1
P               1.34991000     -0.00102521      6.84554000      15
C               6.47046000      0.36915500     -2.59688000       6
H               6.48730000      1.46052000     -2.57985000       1
H              -2.18588000     -3.36761000     -5.91493000       1
N              -3.43492000     -0.42865500      6.30642000       7
N               7.14883000     -0.12826900     -1.36470000       7
I              -4.40933000      3.74714000     -4.49356000      53
H               4.14638000      1.88028000     -5.77502000       1
H               7.15441000     -1.16877000     -1.30478000       1
I              -4.00667000      4.13333000      4.62698000      53
N               3.94202000     -5.60303000     -2.76488000       7
C               3.30099000      2.46450000     -6.14570000       6
P               4.95341000      5.21963000     -2.22576000      15
H               3.36369000      3.49397000     -5.78851000       1
I               3.08799000      2.68725000      6.36078000      53
I              -4.38082000     -4.17623000     -4.61716000      53
H               4.61078000     -5.06196000     -3.35447000       1
H              -0.36810700      5.16434000      5.60293000       1
I               3.21768000      6.92464000     -0.13492900      53
I              -0.49983700     -2.54799000      7.23869000      53
P              -2.43486000      2.64988000     -6.79698000      15
H               0.23413400     -2.34993000     -7.34310000       1
H              -2.89774000     -0.80337400      7.10650000       1
H               4.47920000     -5.97775000     -1.96480000       1
I              -3.85425000     -0.19793200     -6.75331000      53
I              -0.23323600     -6.26169000      4.62698000      53
H              -5.11402000      0.76303200      5.83838000       1
I               6.99112000     -3.47038000     -0.13492900      53
H               7.00884000     -0.01003080     -3.46836000       1
H              -7.42664000      1.12404000      2.23351000       1
C              -0.51802200     -3.12440000     -7.17657000       6
H              -7.14281000      2.82445000      1.72820000       1
H              -4.07427000      6.67618000      1.06410000       1
H              -0.04969620     -4.05034000     -6.83778000       1
H               2.88379000     -3.76013000      6.49145000       1
I              -0.63589500     -6.64789000     -4.49356000      53
H               3.63644000     -6.42398000     -3.33354000       1
P               1.32312000     -7.69397000      2.25687000      15
C              -4.59593000      0.40868400      6.73265000       6
I               6.98755000      4.36020000      0.05637890      53
H               8.13339000      0.20411100     -1.28962000       1
P               1.24122000      7.82425000      2.27431000      15
I               2.89876000      6.21879000     -4.61716000      53
P              -6.09961000      5.21963000     -2.22576000      15
I              -8.22193000     -1.50998000      0.08883940      53
H               5.93900000      0.76303200      5.83838000       1
C              -7.89497000      2.04998000      1.89472000       6
H               3.40533000     -5.23068000      5.60293000       1
H              -3.23056000      7.05465000      3.29628000       1
H              -3.36937000     -7.57058000      1.72820000       1
H              -1.93541000      5.17914000      6.47932000       1
H               1.83803000     -5.21588000      6.47932000       1
H              -4.21728000      1.25182000      7.31401000       1
C              -0.90648300      5.54353000      6.47442000       6
C               2.86695000     -4.85150000      6.47442000       6
I              -7.94936000      2.67266000     -1.83261000      53
N               3.35445000      2.47726000     -7.63671000       7
H              -3.11998000      8.05796000      1.09982000       1
H              -8.47231000      1.87153000      0.98559000       1
H              -0.22252900      4.00561000      7.76652000       1
N              -4.02249000      7.65164000      1.43459000       7
P               4.92662000     -2.47332000     -6.81442000      15
H               3.30267000      1.50181000     -8.00719000       1
H              -1.09536000     -3.30284000     -8.08571000       1
P              -2.29607000     -5.16077000      6.76305000      15
I               6.64369000      3.74714000     -4.49356000      53
H              -6.44225000     -5.06196000     -3.35447000       1
I               3.34410000      6.90921000      4.53100000      53
I               2.78245000     -4.84926000     -6.94303000      53
I              -0.94234800      8.88505000      0.08883940      53
I              -7.68275000     -1.04104000     -4.44432000      53
I              -0.99099100      5.54576000     -6.94303000      53
I              -4.17592000     -7.72236000     -1.83261000      53
H               2.57950000      3.02081000     -8.04212000       1
H              -7.89336000     -3.92255000     -1.75729000       1
H              -5.26107000     -0.20786600      7.34069000       1
H              -6.57382000     -5.97775000     -1.96480000       1
I              -0.38582300      1.70399000      8.93637000      53
I               6.67220000     -4.17623000     -4.61716000      53
I               7.11754000     -3.48581000      4.53100000      53
C              -4.07596000      7.63887000      2.92560000       6
H              -6.90665000      1.88028000     -5.77502000       1
N              -0.22811400      5.04610000      7.70660000       7
P               8.60270000      2.70105000      2.25687000      15
H               5.48917000     -7.01238000      2.68289000       1
H              -0.88964400      6.63489000      6.49145000       1
H              -0.79228600     -8.93451000     -2.57985000       1
C               6.45709000      0.40868400      6.73265000       6
H              -5.01849000      7.18204000      3.23299000       1
H              -5.56386000     -7.01238000      2.68289000       1
I              -8.01284000     -1.47351000      4.57774000      53
H               5.79196000     -0.20786600      7.34069000       1
H               7.31252000     -1.24961000      5.73776000       1
I              -0.45839800      1.75027000     -9.20623000      53
I               7.04635000      4.13333000      4.62698000      53
I              -4.36153000      7.90790000     -2.71052000      53
N              -7.11100000     -5.60303000     -2.76488000       7
H               4.25697000      2.88358000     -7.97148000       1
H               0.75644500      5.37848000      7.78168000       1
P              -6.12640000     -2.47332000     -6.81442000      15
C              -4.12153000     -8.34505000      1.89472000       6
I              -7.45775000     -5.41858000      2.31799000      53
H              -4.79744000      8.19518000      1.02918000       1
H              -8.34430000      2.68869000      3.86253000       1
I               3.31147000     -0.81416900     -9.01492000      53
N              -8.82923000      2.51272000      2.95626000       7
H               6.97875000      6.67618000      1.06410000       1
I               2.96458000     -9.28484000     -0.07716900      53
H              -4.57086000     -7.70634000      3.86253000       1
I               3.38405000     -0.86044700      9.12768000      53
H              -4.69887000     -8.52349000      0.98559000       1
N              -5.05579000     -7.88230000      2.95626000       7
H              -3.91589000     -6.90105000     -5.78851000       1
C              -8.27201000     -4.76569000     -2.33865000       6
I               7.19878000     -0.19793200     -6.75331000      53
P               4.98351000      5.23425000      6.76305000      15
N               7.61810000     -0.42865500      6.30642000       7
H               3.38098000      9.22626000     -1.30478000       1
H               6.03454000      7.18204000      3.23299000       1
P              -9.74559000      0.05988200     -2.30825000      15
N               3.54532000     -5.34892000      7.70660000       7
I              -0.73325200      8.92151000      4.57774000      53
H               8.28686000      0.11241700      5.71683000       1
H              -3.82313000      6.34469000     -6.83778000       1
H               6.83574000      1.25182000      7.31401000       1
H              -4.01325000      8.66834000      3.28278000       1
H              -0.70053700      5.37029000      8.57426000       1
C              -7.75204000      2.46450000     -6.14570000       6
H              -3.65320000     -9.27099000      2.23351000       1
H              -0.60318000    -10.19910000     -0.49703500       1
H              -9.56283000      1.80677000      3.15637000       1
H              -7.68933000      3.49397000     -5.78851000       1
H              -9.33730000      3.38264000      2.68289000       1
I              10.24420000      1.11018000     -0.07716900      53
H               4.52988000     -5.01654000      7.78168000       1
