200
cutoff_factor=1.20000000 nneightol=1.20000000 Lattice="28.95631000       0.00000000       0.00000000       0.00000000      28.27006000       0.00000000       0.00000000       0.00000000      28.71071000" Properties=species:S:1:pos:R:3:Z:I:1
H               0.00333879     -0.41376000     -1.02614000       1
I              -1.21771000     -0.71236500      1.18159000      53
N               0.71441400     -0.31825100     -1.78345000       7
H               1.22686000      0.56089000     -1.61194000       1
H               1.35433000     -1.13532000     -1.67474000       1
C               0.07066440     -0.33656000     -3.13106000       6
P               0.53337500      1.61878000      2.66054000      15
H              -0.63414700      0.49484500     -3.18796000       1
I               0.65071500      3.26224000     -0.13071700      53
H              -0.45190300     -1.28815000     -3.25237000       1
I               3.18046000      0.01002760      1.68939000      53
H               0.16472000     -2.55276000      2.64462000       1
H               0.85028500     -0.23010600     -3.88589000       1
H              -3.22064000      2.63705000     -1.00132000       1
I               2.35871000     -3.44762000     -1.21108000      53
P              -3.90335000     -2.09040000      0.03245090      15
I              -3.79679000     -0.06429300     -2.48251000      53
H               0.59222400     -4.42607000      1.17081000       1
N               0.53781500     -3.44198000      3.03628000       7
H               3.81336000      2.70309000      0.57472400       1
H               1.56387000     -3.37352000      3.12728000       1
I              -2.08878000     -4.34405000     -1.40216000      53
C               0.15366300     -4.58522000      2.15813000       6
H              -3.59719000      3.42802000      1.27264000       1
H              -0.93609400     -4.61837000      2.09055000       1
N              -3.73308000      3.51619000     -0.82978800       7
I              -2.02252000      3.20712000      3.65721000      53
I               0.35316100     -0.16975100      5.25623000      53
H               0.12045100     -3.57312000      3.98419000       1
H              -3.09317000      4.33326000     -0.93850400       1
P               4.99164000     -2.09040000      0.03245090      15
I              -1.26704000      3.18791000     -4.30260000      53
H              -2.88359000     -0.72510700      4.71335000       1
C              -4.37682000      3.53449000      0.51783000       6
I               5.09820000     -0.06429300     -2.48251000      53
C               4.51817000      3.53449000      0.51783000       6
H              -5.08163000      2.70309000      0.57472400       1
H              -4.32700000     -0.52555100      3.85641000       1
P               0.54414400      5.28834000     -2.64568000      15
H              -4.44417000      3.61171000     -1.58710000       1
H               4.45083000      3.61171000     -1.58710000       1
I              -5.71453000      0.01002760      1.68939000      53
H               4.56799000     -0.52555100      3.85641000       1
H               3.99561000      4.48608000      0.63915800       1
I               2.42498000      3.68383000      4.18339000      53
H               0.53559200      5.48301000      2.60213000       1
H               0.53560200     -5.50661000      2.60213000       1
N              -3.90965000     -0.65666900      4.80433000       7
I              -4.09431000     -3.92891000      2.58437000      53
N               5.16191000      3.51619000     -0.82978800       7
P               0.54415300     -5.70128000     -2.64568000      15
I               3.22978000      3.91032000     -3.79483000      53
H               5.67435000      2.63705000     -1.00132000       1
H              -3.85531000     -3.36558000     -3.78404000       1
H               5.29780000      3.42802000      1.27264000       1
I               0.35316900     -3.86276000     -5.19760000      53
H               3.51138000     -3.17332000     -4.70382000       1
H              -4.89938000      4.48608000      0.63915800       1
H              -3.91194000      1.40796000      5.23846000       1
H               0.59221400      6.56355000      1.17081000       1
I               4.80068000     -3.92891000      2.58437000      53
I               2.42499000     -0.00917785     -6.27044000      53
P              -3.91412000      1.57917000     -5.27378000      15
H               3.51138000      0.51968600      5.75001000       1
C               0.15365300      6.40440000      2.15813000       6
H              -0.93610300      6.37125000      2.09055000       1
H              -3.91193000     -2.28505000     -5.21537000       1
H              -4.28273000     -1.54590000      5.19599000       1
N               4.98534000     -0.65666900      4.80433000       7
I              -2.08879000      6.64557000     -1.40216000      53
I              -2.02251000     -0.48588800     -6.79662000      53
H               4.61226000     -1.54590000      5.19599000       1
C              -4.29386000      0.48656300      5.68246000       6
H               5.03969000     -3.36558000     -3.78404000       1
C              -4.29385000     -3.20645000     -4.77137000       6
H               5.80182000      4.33326000     -0.93850400       1
C               4.60113000      0.48656300      5.68246000       6
C               4.60114000     -3.20645000     -4.77137000       6
H               4.98306000      1.40796000      5.23846000       1
H              -3.09316000     -6.65636000     -0.93850400       1
P               4.98087000      1.57917000     -5.27378000      15
H               0.12045000      3.72349000     -6.46963000       1
H               0.85027700      3.46290000      6.56794000       1
I              -6.53628000     -3.44762000     -1.21108000      53
I              -1.26704000     -4.10870000      6.15122000      53
H               4.98306000     -2.28505000     -5.21537000       1
H              -0.45191100      2.40486000      7.20145000       1
H               3.99562000     -6.50354000      0.63915800       1
H               6.01140000     -0.72510700      4.71335000       1
H              -3.85532000      0.32743000      6.66979000       1
I               0.65072400     -7.72738000     -0.13071700      53
H              -2.88359000     -4.41812000     -5.74048000       1
I               7.67728000     -0.71236500      1.18159000      53
H              -7.54066000     -1.13532000     -1.67474000       1
H              -5.38361000     -3.17332000     -4.70382000       1
H              -7.66813000      0.56089000     -1.61194000       1
I              -5.66521000      3.91032000     -3.79483000      53
H              -5.38362000      0.51968600      5.75001000       1
I               2.35870000      7.54200000     -1.21108000      53
C               0.07065620      3.35645000      7.32276000       6
H               0.53560100      1.79000000     -7.85170000       1
P               0.54414500     -2.00827000      7.80815000      15
P               0.53338300     -2.07423000     -7.79328000      15
N              -3.90964000     -4.34968000     -5.64950000       7
I               3.22979000     -3.38629000      6.65899000      53
N               0.53780600      7.54763000      3.03628000       7
H              -4.89937000     -6.50354000      0.63915800       1
I               6.80621000     -4.34405000     -1.40216000      53
P              -3.91413000      5.27218000      5.18005000      15
H               5.03968000      0.32743000      6.66979000       1
N               0.53781400      3.85462000     -7.41755000       7
N              -8.18058000     -0.31825100     -1.78345000       7
H               1.56386000      7.61610000      3.12728000       1
N              -3.73307000     -7.47342000     -0.82978800       7
H              -0.63415500      4.18785000      7.26587000       1
I               6.87247000      3.20712000      3.65721000      53
H               0.12044200      7.41650000      3.98419000       1
H               1.56387000      3.92309000     -7.32655000       1
H              -3.59718000     -7.56160000      1.27264000       1
I              -6.47002000      3.68383000      4.18339000      53
I              -4.09432000      7.06070000      2.58437000      53
H              -4.28272000     -5.23891000     -5.25784000       1
P              -3.91412000     -5.71744000      5.18005000      15
H              -7.33112000     -3.37352000      3.12728000       1
I               3.22979000     -7.07930000     -3.79483000      53
C              -4.37681000     -7.45513000      0.51783000       6
N               4.98535000     -4.34968000     -5.64950000       7
C               0.15366200      2.71139000     -8.29570000       6
C               4.51818000     -7.45513000      0.51783000       6
H               4.61227000     -5.23891000     -5.25784000       1
H              -4.44416000     -7.37791000     -1.58710000       1
I               2.42499000     -7.30579000      4.18339000      53
H               4.45083000     -7.37791000     -1.58710000       1
I               0.35316000      7.12686000     -5.19760000      53
H              -0.93609500      2.67824000     -8.36327000       1
I              -2.02251000     -7.78250000      3.65721000      53
H               0.16471100      8.43686000      2.64462000       1
I              -8.24428000      3.26224000     -0.13071700      53
H               8.26084000      0.49484500     -3.18796000       1
H               5.80183000     -6.65636000     -0.93850400       1
H              -4.28273000      5.75071000     -5.25784000       1
P               4.98086000      5.27218000      5.18005000      15
I               4.80067000      7.06070000      2.58437000      53
P              -8.36162000      1.61878000      2.66054000      15
H              -8.04471000     -0.23010600     -3.88589000       1
H              -4.32699000     -4.21856000     -6.59742000       1
H              -8.89165000     -0.41376000     -1.02614000       1
H               8.89833000     -0.41376000     -1.02614000       1
I              -1.26703000     -7.80171000     -4.30260000      53
H              -3.22063000     -8.35256000     -1.00132000       1
I              -6.47001000     -0.00917785     -6.27044000      53
H               4.61226000      5.75071000     -5.25784000       1
H               4.56800000     -4.21856000     -6.59742000       1
N               5.16192000     -7.47342000     -0.82978800       7
H               0.16471900      4.74385000     -7.80921000       1
H               8.44309000     -1.28815000     -3.25237000       1
H               3.81337000     -8.28653000      0.57472400       1
P               4.98087000     -5.71744000      5.18005000      15
H              -2.88360000      6.57150000     -5.74048000       1
H               1.35432000      2.55769000      8.77909000       1
I              -2.08879000     -0.65104300      9.05167000      53
I              -1.26705000      6.88092000      6.15122000      53
I               7.62795000      3.18791000     -4.30260000      53
H               5.29781000     -7.56160000      1.27264000       1
N               0.71440600      3.37476000      8.67037000       7
H              -3.85532000      7.62404000     -3.78404000       1
C              -8.82433000     -0.33656000     -3.13106000       6
I              -5.66521000     -3.38629000      6.65899000      53
H               6.01141000     -4.41812000     -5.74048000       1
H               7.95890000     -4.61837000      2.09055000       1
H              -8.73027000     -2.55276000      2.64462000       1
H              -8.30277000     -4.42607000      1.17081000       1
I              -4.09431000      3.36769000     -7.86946000      53
C               8.96566000     -0.33656000     -3.13106000       6
N              -8.35718000     -3.44198000      3.03628000       7
I               2.35870000      0.24539200      9.24275000      53
I              -3.79680000      3.62872000      7.97132000      53
N              -3.90965000      6.63994000     -5.64950000       7
I               6.80620000      6.64557000     -1.40216000      53
I               6.87248000     -0.48588800     -6.79662000      53
P              -3.90336000      8.89922000      0.03245090      15
H               0.12045900     -7.26613000     -6.46963000       1
H               0.59222200      2.87054000     -9.28302000       1
H              -5.08162000     -8.28653000      0.57472400       1
P               0.53338400     -9.37084000      2.66054000      15
H               3.51138000      7.81629000     -4.70382000       1
H               9.05971000     -2.55276000      2.64462000       1
N               9.60941000     -0.31825100     -1.78345000       7
I               4.80068000      3.36769000     -7.86946000      53
I              -5.66520000     -7.07930000     -3.79483000      53
H              -3.59718000     -0.26499100     -9.18118000       1
H               1.22685000      4.25390000      8.84189000       1
H               5.03968000      7.62404000     -3.78404000       1
P               9.42837000      1.61878000      2.66054000      15
H              -0.63414600     -6.80176000      7.26587000       1
H              -9.34690000     -1.28815000     -3.25237000       1
H               0.00333061      3.27925000      9.42769000       1
H               0.16472800     -6.24577000     -7.80921000       1
I               3.18047000     -3.68298000     -8.76444000      53
H               0.85028600     -7.52671000      6.56794000       1
