200
cutoff_factor=1.20000000 nneightol=1.20000000 Lattice="29.23491000       0.00000000       0.00000000       0.00000000      29.14942000       0.00000000       0.00000000       0.00000000      28.58831000" Properties=species:S:1:pos:R:3:Z:I:1
H               0.83284700      0.10018500      1.53470000       1
H              -0.17858300      1.41985000      1.43705000       1
N               0.41798000      0.87869500      2.08795000       7
I               1.16438000     -2.00246000      0.04027560      53
I              -1.37259000      1.33721000     -1.31566000      53
H              -2.26369000     -1.44134000     -0.66124800       1
H              -0.17878400      0.44197100      2.81290000       1
P               1.17450000     -0.22035500     -2.62408000      15
H              -2.26379000     -2.48084000      0.80117400       1
C               1.48414000      1.73429000      2.69618000       6
H               2.09425000      2.15145000      1.89177000       1
C              -2.64543000     -2.36109000     -0.21438000       6
I               3.10314000      1.92064000     -1.19558000      53
H              -2.37336000     -3.22327000     -0.82720400       1
H               2.09407000      1.11169000      3.35474000       1
H               1.00301000      2.53372000      3.26429000       1
I              -1.37259000     -2.18505000      3.64015000      53
H              -4.44978000     -1.47788000      0.41327200       1
N              -4.13277000     -2.27546000     -0.15360800       7
I              -3.56779000      1.63849000      2.62820000      53
I              -0.89849000     -2.13586000     -4.15643000      53
P              -3.43407000      3.40297000     -0.02472590      15
P               1.17433000     -3.93298000      2.59914000      15
H               4.66186000     -1.47788000      0.41327200       1
H              -4.52835000     -2.17265000     -1.11483000       1
H               2.20043000      3.96682000     -2.47463000       1
H               4.58329000     -2.17265000     -1.11483000       1
I              -0.89116600      4.95372000      1.29385000      53
H               0.31519700      5.18468000     -1.54350000       1
H              -2.01853000      0.34611400     -5.05122000       1
H              -0.07612560      4.47823000     -3.14594000       1
N               4.97887000     -2.27546000     -0.15360800       7
I               3.74685000     -1.88893000     -3.54177000      53
I               3.10291000     -1.87996000      4.15159000      53
H              -4.52839000     -3.14944000      0.25950200       1
I               1.14745000      1.63537000     -5.16695000      53
H               4.58325000     -3.14944000      0.25950200       1
H               0.30805600     -4.74003000     -3.00636000       1
C               0.51929400      5.22502000     -2.61547000       6
H              -2.89597000      2.55954000     -4.50576000       1
H               0.30824800     -5.77931000     -1.54350000       1
N               1.96390000      4.91876000     -2.83324000       7
H              -4.14503000      1.28426000     -4.31653000       1
P              -3.43437000     -0.28719600      5.16663000      15
I              -0.89811500     -6.01026000      1.29385000      53
C               0.51234500     -5.73896000     -2.61547000       6
I               5.54385000      1.63849000      2.62820000      53
N              -2.62707000      0.85359700     -5.72051000       7
H              -3.16392000      3.73574000      4.11797000       1
C              -3.52062000      1.83064000     -5.02735000       6
H               2.57694000     -5.37532000     -2.35728000       1
I              -6.00850000      1.92064000     -1.19558000      53
I              -0.89185300      1.46837000      6.19825000      53
H               2.58389000      5.58867000     -2.35728000       1
H              -2.00732000      4.92279000      3.93877000       1
P               5.67757000      3.40297000     -0.02472590      15
H               2.20030000      4.94426000     -3.85019000       1
I               3.74684000     -5.34810000      1.32515000      53
I              -5.36479000     -1.88893000     -3.54177000      53
H               4.96661000      1.28426000     -4.31653000       1
I              -3.31857000      5.24626000     -2.60037000      53
H              -2.01395000      1.31856000     -6.41591000       1
I               3.75379000      5.61588000      1.32515000      53
C               6.46621000     -2.36109000     -0.21438000       6
H              -2.01190000      3.95034000      5.30346000       1
H               0.31500500      6.22396000     -3.00636000       1
N              -2.62043000      4.45783000      4.63417000       7
N               1.95695000     -6.04523000     -2.83324000       7
H              -3.17055000      0.13150900     -6.23671000       1
H               6.84795000     -1.44134000     -0.66124800       1
I              -3.32552000     -5.71772000     -2.60037000      53
H              -0.08307460     -6.48575000     -3.14594000       1
H               0.99637000     -1.07051000     -7.09039000       1
H               2.19999000     -2.41549000      6.50449000       1
H               6.84785000     -2.48084000      0.80117400       1
P              -3.44101000     -3.89143000     -5.18805000      15
H               0.31469300     -1.13580000      7.34832000       1
I               1.15409000      5.23960000      5.18773000      53
H               2.19335000     -6.01972000     -3.85019000       1
H              -4.13995000      2.32622000     -5.77869000       1
H              -2.01426000     -6.04119000      3.93877000       1
H               6.73827000     -3.22327000     -0.82720400       1
I              -6.00873000     -1.87996000      4.15159000      53
H              -7.01739000      2.15145000      1.89177000       1
P               1.18128000      7.03100000      2.59914000      15
P               5.67727000     -0.28719600      5.16663000      15
I              -5.36480000     -5.34810000      1.32515000      53
H               2.08743000     -2.49254000     -6.99994000       1
C               5.59102000      1.83064000     -5.02735000       6
H               2.19348000     -6.99717000     -2.47463000       1
H              -0.07643790     -2.88152000      7.20874000       1
I               1.14714000     -5.72438000      5.18773000      53
H              -7.01757000      1.11169000      3.35474000       1
I              -5.35785000      5.61588000      1.32515000      53
I               7.73905000      1.33721000     -1.31566000      53
H              -4.14026000     -5.03354000      4.57599000       1
I               3.75349000      1.71530000      6.81291000      53
H               4.97169000      2.32622000     -5.77869000       1
C               1.47751000     -1.86994000     -7.65850000       6
C               0.51898200     -2.13473000      7.73921000       6
H               6.21567000      2.55954000     -4.50576000       1
H              -2.89628000     -4.80022000      5.84892000       1
H              -2.36642000      7.74071000     -0.82720400       1
H               5.94772000      3.73574000      4.11797000       1
N               1.96359000     -2.44100000      7.52144000       7
H              -0.18542100     -3.16226000     -7.54178000       1
I              -7.94726000     -2.00246000      0.04027560      53
I               5.79307000      5.24626000     -2.60037000      53
C              -7.62750000      1.73429000      2.69618000       6
P              -3.44102000     -7.56102000     -0.02472590      15
H              -6.91121000      3.96682000     -2.47463000       1
P              -7.93714000     -0.22035500     -2.62408000      15
C              -3.51398000      5.43487000      5.32733000       6
N              -2.62738000     -6.50616000      4.63417000       7
H              -8.27879000      0.10018500      1.53470000       1
H               4.97138000     -5.03354000      4.57599000       1
C              -3.52093000     -5.52911000      5.32733000       6
P               1.18114000      3.38387000      7.73060000      15
I               5.78612000     -5.71772000     -2.60037000      53
H              -4.13331000      5.93045000      4.57599000       1
P               1.17465000      3.42677000     -7.75554000      15
I              -1.37228000      5.17470000     -6.71453000      53
H               2.58358000     -1.77109000      7.99740000       1
H               5.94108000      0.13150900     -6.23671000       1
P               5.67063000     -3.89143000     -5.18805000      15
N               6.48457000      0.85359700     -5.72051000       7
I              -3.31888000     -2.11349000      7.75431000      53
N               0.41134400     -2.72554000     -8.26673000       7
H               7.09311000      0.34611400     -5.05122000       1
I              -3.57443000     -1.96573000     -7.72648000      53
H              -6.53470000     -5.37532000     -2.35728000       1
H              -4.13839000      4.88849000      6.03815000       1
H              -2.25684000      8.48315000      0.80117400       1
I               7.73905000     -2.18505000      3.64015000      53
I              -5.35815000      1.71530000      6.81291000      53
H               2.08762000     -1.45278000     -8.46291000       1
I               3.10322000      5.47979000     -6.20309000      53
I               3.09628000     -5.48419000     -6.20309000      53
H               2.20012000     -3.39294000      7.88005000       1
H              -3.17087000     -7.22824000      4.11797000       1
H              -6.52775000      5.58867000     -2.35728000       1
I              -1.37923000     -5.78928000     -6.71453000      53
H              -2.88933000      6.16377000      5.84892000       1
N              -8.69366000      0.87869500      2.08795000       7
H               4.97833000      5.93045000      4.57599000       1
C              -2.63848000      8.60290000     -0.21438000       6
H              -2.01884000     -7.01364000      5.30346000       1
H              -4.52144000      7.81455000      0.25950200       1
I               1.17133000      8.96153000      0.04027560      53
H               4.59020000      7.81455000      0.25950200       1
H               0.31488500     -2.17508000      8.81118000       1
H               0.99605800     -8.43026000      3.26429000       1
H              -8.10863000      2.53372000      3.26429000       1
N              -7.14774000      4.91876000     -2.83324000       7
N               6.49121000      4.45783000      4.63417000       7
H               8.93306000      1.41985000      1.43705000       1
H              -0.18522000     -2.18438000     -8.91763000       1
I              -0.89780300      1.34949000     -9.06083000      53
H               4.97325000      4.88849000      6.03815000       1
P              -7.93730000     -3.93298000      2.59914000      15
H               2.08730000     -8.81253000      1.89177000       1
H              -6.91134000      4.94426000     -3.85019000       1
H               8.93285000      0.44197100      2.81290000       1
P              -3.43406000      7.07256000     -5.18805000      15
C               5.59765000      5.43487000      5.32733000       6
I               8.21315000     -2.13586000     -4.15643000      53
P               5.67062000     -7.56102000     -0.02472590      15
C               5.59071000     -5.52911000      5.32733000       6
H               7.10432000      4.92279000      3.93877000       1
H              -9.29022000      1.41985000      1.43705000       1
H              -4.14534000     -6.07549000      6.03815000       1
H               0.82621100     -3.50404000     -8.81998000       1
I              -1.36564000      8.77893000      3.64015000      53
N              -4.12582000      8.68852000     -0.15360800       7
I               3.09619000     -9.04334000     -1.19558000      53
I              -7.96418000      1.63537000     -5.16695000      53
H              -0.18553200     -9.54413000      1.43705000       1
H               7.09769000      1.31856000     -6.41591000       1
I               8.22047000      4.95372000      1.29385000      53
H               7.09974000      3.95034000      5.30346000       1
I               5.53721000     -1.96573000     -7.72648000      53
H              -9.29042000      0.44197100      2.81290000       1
C               1.47719000     -9.22970000      2.69618000       6
N              -7.15469000     -6.04523000     -2.83324000       7
H               6.21536000     -4.80022000      5.84892000       1
H              -6.91165000     -2.41549000      6.50449000       1
N               9.52962000      0.87869500      2.08795000       7
I              -0.89154100      8.82812000     -4.15643000      53
H              -2.25674000      9.52264000     -0.66124800       1
I              -1.37954000     -9.62678000     -1.31566000      53
H              -2.36673000      0.38095500      9.52748000       1
H               4.96630000     -6.07549000      6.03815000       1
I               5.79276000     -2.11349000      7.75431000      53
H              -6.91829000     -6.01972000     -3.85019000       1
H              -4.52140000      8.79133000     -1.11483000       1
H              -2.90291000     -8.40445000     -4.50576000       1
H               4.59024000      8.79133000     -1.11483000       1
I               3.74715000      2.01165000     -9.02953000      53
N               4.98582000      8.68852000     -0.15360800       7
H               9.94449000      0.10018500      1.53470000       1
