200
cutoff_factor=1.20000000 nneightol=1.20000000 Lattice="28.68351000       0.00000000       0.00000000       0.00000000      28.14861000       0.00000000       0.00000000       0.00000000      28.94209000" Properties=species:S:1:pos:R:3:Z:I:1
P               0.13985300     -1.19900000     -0.01220780      15
I               2.06550000      1.36703000     -0.47042700      53
I              -2.30019000      0.90421200      0.58408500      53
H              -0.89481600      2.25288000      2.32403000       1
H               0.58829900      2.39200000     -2.29605000       1
I              -0.49753100     -1.13139000     -3.19271000      53
I               0.89105700     -0.98752300      3.17198000      53
H               0.47402400      1.78397000      3.15118000       1
N              -0.29428200      2.47926000      3.14320000       7
I              -1.86342000     -3.62001000      0.44142400      53
I               2.53158000     -3.25677000     -0.43305000      53
H               3.34897000     -0.83738000     -2.31756000       1
H              -0.86640000      2.61654000     -3.14503000       1
N               0.15648100      2.81173000     -3.14761000       7
H              -3.90929000     -0.00151087     -1.93239000       1
H              -3.90974000     -0.13129600      2.29796000       1
H               0.80708000      3.97761000      2.14292000       1
H               0.60272300      2.35452000     -3.96968000       1
H               3.43932000     -0.44808100      3.12849000       1
H              -0.86216000      2.32650000      3.99906000       1
H              -3.95770000     -1.79298000     -2.02798000       1
H              -2.92766000     -2.16371000      3.15138000       1
C               0.22793400      3.87606000      3.06363000       6
H              -0.03651620     -4.41650000     -2.29258000       1
H              -3.00651000     -0.82902300     -3.99399000       1
C              -4.36375000     -0.86146300     -2.42874000       6
C               4.43509000     -0.86146300     -2.42874000       6
H              -0.08029880      4.72269000     -2.29258000       1
H               4.88955000     -0.00151087     -1.93239000       1
C               0.38531500      4.28284000     -3.17741000       6
N              -4.32731000     -0.58755300      3.13650000       7
H               4.88910000     -0.13129600      2.29796000       1
C              -4.01332000     -2.04356000      3.14533000       6
N               4.47153000     -0.58755300      3.13650000       7
H               4.35592000     -2.49506000      2.24829000       1
P              -4.29524000      3.45174000     -0.03175490      15
H              -0.62131700      4.56250000      3.05859000       1
H              -0.57753500     -4.57670000      3.05859000       1
H               4.84114000     -1.79298000     -2.02798000       1
H              -4.44292000     -2.49506000      2.24829000       1
H              -3.91614000     -0.11859100      3.96987000       1
H               0.85086300     -5.16159000      2.14292000       1
I              -3.46716000      3.16439000     -3.15078000      53
N              -4.03968000     -0.79190200     -3.87836000       7
H               1.46220000      4.46566000     -3.17376000       1
P               4.50360000      3.45174000     -0.03175490      15
H               0.85964200      4.05920000      3.93569000       1
C               0.42909800     -4.85636000     -3.17741000       6
H               1.50598000     -4.67353000     -3.17376000       1
I              -1.90720000      5.51918000      0.44142400      53
H              -5.44987000     -0.83738000     -2.31756000       1
H              -0.02366520     -4.45441000     -4.08636000       1
C               4.78552000     -2.04356000      3.14533000       6
I               3.90469000      3.42065000      3.18512000      53
C               0.27171600     -5.26314000      3.06363000       6
H              -4.39364000      0.09032730     -4.28658000       1
H               4.40520000      0.09032730     -4.28658000       1
N               4.75916000     -0.79190200     -3.87836000       7
H              -0.06744780      4.68478000     -4.08636000       1
H              -5.35952000     -0.44808100      3.12849000       1
I              -2.31079000      0.86194400      5.75361000      53
H               4.88270000     -0.11859100      3.96987000       1
I               2.23815000      1.38954000     -5.76075000      53
H               4.31750000     -1.58009000     -4.39963000       1
I               2.48780000      5.88243000     -0.43305000      53
P               0.17509400     -1.22657000      6.30151000      15
P               0.32359300     -1.17330000     -6.31365000      15
H               4.34719000     -2.48621000      4.04249000       1
H              -4.48134000     -1.58009000     -4.39963000       1
H               0.90342500     -5.07999000      3.93569000       1
H              -4.45165000     -2.48621000      4.04249000       1
I               6.49865000      0.90421200      0.58408500      53
I              -4.89415000      3.42065000      3.18512000      53
I              -6.73334000      1.36703000     -0.47042700      53
I               5.33168000      3.16439000     -3.15078000      53
H               5.87118000     -2.16371000      3.15138000       1
N               0.20026300     -6.32747000     -3.14761000       7
I              -6.26726000     -3.25677000     -0.43305000      53
H               5.79233000     -0.82902300     -3.99399000       1
P              -4.25146000     -5.68746000     -0.03175490      15
I               2.81486000     -3.10846000     -5.76810000      53
H               0.63208100     -6.74719000     -2.29605000       1
I              -1.76937000     -3.71004000      5.86325000      53
I              -2.16229000      0.91521400     -6.86155000      53
P               4.54738000     -5.68746000     -0.03175490      15
H              -0.82261800     -6.52266000     -3.14503000       1
I               2.08965000      1.33627000      6.85441000      53
H              -0.85103300     -6.88632000      2.32403000       1
N              -0.25049900     -6.65994000      3.14320000       7
I              -3.42338000     -5.97480000     -3.15078000      53
I               3.94847000     -5.71855000      3.18512000      53
I               6.93542000     -3.62001000      0.44142400      53
I              -1.62087000     -3.65677000     -6.75191000      53
H               0.64650600     -6.78468000     -3.96968000       1
P               0.09607030      7.94019000     -0.01220780      15
H              -0.81837700     -6.81269000      3.99906000       1
I               2.66636000     -3.16173000      6.84706000      53
H               0.51780600     -7.35522000      3.15118000       1
I               2.10928000     -7.77217000     -0.47042700      53
I              -4.85037000     -5.71855000      3.18512000      53
I              -1.81315000      5.42915000      5.86325000      53
H              -2.97144000      6.97549000      3.15138000       1
H               4.31213000      6.64413000      2.24829000       1
P              -4.14270000      3.50522000     -6.27602000      15
H              -4.48671000      6.64413000      2.24829000       1
P              -4.29120000      3.45195000      6.33914000      15
P               4.50764000      3.45195000      6.33914000      15
H               7.90402000      2.25288000      2.32403000       1
I              -2.25641000     -8.23498000      0.58408500      53
P               4.65614000      3.50522000     -6.27602000      15
I              -7.90778000     -0.98752300      3.17198000      53
H              -4.00148000      7.34622000     -2.02798000       1
I               5.37546000     -5.97480000     -3.15078000      53
I              -0.54131400      8.00781000     -3.19271000      53
I              -6.31104000      5.88243000     -0.43305000      53
I               6.48804000      0.86194400      5.75361000      53
P              -8.65899000     -1.19900000     -0.01220780      15
C              -4.05710000      7.09563000      3.14533000       6
I               0.84727500      8.15167000      3.17198000      53
I               2.77107000      6.03074000     -5.76810000      53
I               6.89164000      5.51918000      0.44142400      53
I              -6.56069000      1.38954000     -5.76075000      53
H              -8.21054000      2.39200000     -2.29605000       1
I              -1.66465000      5.48242000     -6.75191000      53
I              -5.98398000     -3.10846000     -5.76810000      53
H               4.30341000      6.65298000      4.04249000       1
H               7.93244000      2.61654000     -3.14503000       1
H               0.45422400      2.30125000      8.64548000       1
I               8.30131000     -1.13139000     -3.19271000      53
H              -0.71366000      2.37977000     -8.61610000       1
H              -4.49543000      6.65298000      4.04249000       1
H               4.79736000      7.34622000     -2.02798000       1
P               8.93869000     -1.19900000     -0.01220780      15
H              -8.32482000      1.78397000      3.15118000       1
C               4.74173000      7.09563000      3.14533000       6
H              -7.33664000      4.46566000     -3.17376000       1
H              -7.99176000      3.97761000      2.14292000       1
H               7.93668000      2.32650000      3.99906000       1
H              -3.15501000     -0.88229300      8.62117000       1
H              -7.29286000     -4.67353000     -3.17376000       1
H               3.30519000      8.30182000     -2.31756000       1
H               4.25670000      0.03705720      8.32858000       1
H               4.16900000     -1.63336000      8.21552000       1
P              -4.09892000     -5.63398000     -6.27602000      15
N               8.50456000      2.47926000      3.14320000       7
H              -8.19612000      2.35452000     -3.96968000       1
H              -3.76764000     -0.06532040     -8.64529000       1
I               2.62258000      5.97747000      6.84706000      53
H              -4.54214000      0.03705720      8.32858000       1
P              -4.24742000     -5.68725000      6.33914000      15
I              -0.64603100     -1.18466000      9.42245000      53
I               1.03956000     -0.93425300     -9.44318000      53
H              -4.62984000     -1.63336000      8.21552000       1
I               6.63654000      0.91521400     -6.86155000      53
N              -8.64236000      2.81173000     -3.14761000       7
H               5.82740000      6.97549000      3.15138000       1
H              -0.17216500     -4.50768000      8.52880000       1
P               4.69992000     -5.63398000     -6.27602000      15
P               4.55142000     -5.68725000      6.33914000      15
H               1.00814000      4.11247000     -8.67947000       1
H               0.62252300      1.83724000     -9.46397000       1
C               4.39131000      8.27773000     -2.42874000       6
I              -6.70919000      1.33627000      6.85441000      53
C              -4.40753000      8.27773000     -2.42874000       6
H              -0.21594700      4.63151000      8.52880000       1
H              -3.05029000      8.31017000     -3.99399000       1
H              -7.94798000     -5.16159000      2.14292000       1
I              -6.13248000     -3.16173000      6.84706000      53
N              -4.18818000     -0.84517200      8.73679000       7
H               4.27372000      7.55911000     -4.39963000       1
H              -7.93920000      4.05920000      3.93569000       1
N              -0.14578200      2.53253000     -9.47196000       7
H               3.39553000      8.69112000      3.12849000       1
H              -4.52512000      7.55911000     -4.39963000       1
H               8.17752000      4.56250000      3.05859000       1
N               0.00798132      2.75846000      9.46755000       7
H              -1.01490000      2.56327000      9.47013000       1
I               7.02947000     -3.71004000      5.86325000      53
C              -8.57091000      3.87606000      3.06363000       6
H               8.22130000     -4.57670000      3.05859000       1
I              -9.29637000     -1.13139000     -3.19271000      53
H              -4.30315000     -2.43294000     -8.57267000       1
N               8.95532000      2.81173000     -3.14761000       7
N               4.61066000     -0.84517200      8.73679000       7
I               2.28193000     -7.74966000     -5.76075000      53
N              -9.09312000      2.47926000      3.14320000       7
H               9.27286000      1.78397000      3.15118000       1
H               9.38714000      2.39200000     -2.29605000       1
C              -8.41352000      4.28284000     -3.17741000       6
H               4.49569000     -2.43294000     -8.57267000       1
H               5.03120000     -0.06532040     -8.64529000       1
N              -4.08346000      8.34729000     -3.87836000       7
H               8.76232000     -4.41650000     -2.29258000       1
H               1.05192000     -5.02672000     -8.67947000       1
H              -2.77916000     -2.11044000     -9.46378000       1
H              -3.95352000      9.00790000      2.29796000       1
N              -4.37109000      8.55164000      3.13650000       7
H              -3.86550000     -9.14071000     -1.93239000       1
P               0.13131100      7.91263000      6.30151000      15
N               4.42775000      8.55164000      3.13650000       7
