200
cutoff_factor=1.20000000 nneightol=1.20000000 Lattice="28.49820000       0.00000000       0.00000000       0.00000000      29.04865000       0.00000000       0.00000000       0.00000000      28.72445000" Properties=species:S:1:pos:R:3:Z:I:1
I               0.75049300      0.64738800      0.99106500      53
P              -1.01145000      1.54983000     -1.56462000      15
H              -1.66894000     -0.62266800      2.31099000       1
H               0.11574900     -2.98026000     -1.21567000       1
I              -3.03197000     -0.85920200     -1.12483000      53
H               1.71397000     -3.12749000     -0.65583900       1
I               0.78135200     -0.25002100     -3.53755000      53
H               0.95036400      3.04056000      1.79627000       1
N               0.93736800     -3.59826000     -1.16857000       7
H               3.65649000      0.27877500     -1.52144000       1
C              -2.35347000     -0.82498700      3.13709000       6
P               2.68153000     -1.00881000      2.91772000      15
I              -2.71600000      3.51978000      0.35892800      53
H              -2.70976000      0.10845100      3.57694000       1
H              -4.00969000     -0.99472200      1.88739000       1
H              -1.86743000     -1.44360000      3.89457000       1
I               1.12764000      3.98300000     -1.95442000      53
H               0.71064500     -4.47541000     -0.64992800       1
H              -3.24183000     -2.46519000      2.15333000       1
H               4.39973000      1.38537000     -0.32000000       1
H               1.68003000     -3.03607000     -3.06115000       1
H               3.23634000      2.60187000     -2.09035000       1
N              -3.52886000     -1.57031000      2.60143000       7
N               1.02487000      4.01326000      2.17028000       7
I               0.54342000     -3.37170000      3.23824000      53
I               3.97020000     -2.53636000      0.38956700      53
C               4.43251000      1.02871000     -1.35105000       6
C               1.40650000     -3.95380000     -2.53770000       6
H               0.20355100      4.54389000      1.84199000       1
H               1.88786000      4.44510000      1.77506000       1
N               4.17868000      2.18590000     -2.25769000       7
H               0.20435000      3.49727000      4.04429000       1
H               0.59751200     -4.46634000     -3.06092000       1
C               1.10459000      3.97901000      3.66091000       6
I              -2.60173000      2.67833000     -4.14857000      53
H               1.99160000      3.40861000      3.94604000       1
H              -2.56488000     -0.11946800     -4.99987000       1
H               4.18604000      1.89544000     -3.26025000       1
H              -1.75020000     -1.71467000     -5.08164000       1
H              -4.21579000     -1.79342000      3.35211000       1
H               5.41665000      0.61950600     -1.58451000       1
H               2.27385000     -4.61022000     -2.44464000       1
I               4.89868000      1.28894000      2.62117000      53
I               1.41771000      0.40782400      5.52400000      53
H              -5.52390000      0.61950600     -1.58451000       1
I              -3.19787000     -4.82467000      1.02807000      53
P              -4.62751000     -3.55791000     -1.61858000      15
H               4.87312000      2.94399000     -2.15245000       1
C              -2.63721000     -1.14427000     -5.36677000       6
I              -2.45288000      2.78789000      4.94048000      53
I              -2.32409000     -4.71546000     -3.50368000      53
H              -3.53745000     -1.62601000     -4.98339000       1
H              -1.34665000      5.72826000     -2.44464000       1
H               1.17692000      5.00382000      4.02781000       1
H              -2.90985000      5.86308000     -0.64992800       1
H               1.71083000      3.77160000     -5.13311000       1
H              -0.63753700      3.42178000     -5.67557000       1
H               0.60778700     -3.31976000      5.76743000       1
I               4.74588000     -2.33540000     -4.08720000      53
H              -6.54082000      1.38537000     -0.32000000       1
I              -6.04187000      1.28894000      2.62117000      53
P               2.63611000     -1.01070000     -6.10363000      15
C              -6.50805000      1.02871000     -1.35105000       6
P              -4.56264000      4.11258000      2.92405000      15
I               0.90449500     -6.81870000      0.35892800      53
P              -0.94214200     -6.22590000      2.92405000      15
I               4.12218000      5.51381000      1.02807000      53
H              -6.06743000      2.94399000     -2.15245000       1
H               3.82405000     -5.79459000      1.84199000       1
C              -2.21400000      6.38468000     -2.53770000       6
H               6.93086000     -0.99472200      1.88739000       1
I               4.76057000     -2.53687000      4.87910000      53
H              -3.02299000      5.87214000     -3.06092000       1
I               4.12168000      1.84350000     -5.78944000      53
N              -2.68313000      6.74023000     -1.16857000       7
H               1.29486000     -2.27121000      6.87523000       1
N               0.04940040      3.64488000     -6.42625000       7
H               4.33931000      0.65694000      5.96676000       1
H               0.33642100      2.75001000     -6.87435000       1
H              -0.34191700     -2.61333000      6.93733000       1
P               6.31305000     -3.55791000     -1.61858000      15
I              -6.97035000     -2.53636000      0.38956700      53
N               0.60042900     -3.02930000      6.76999000       7
H              -7.28406000      0.27877500     -1.52144000       1
C               1.22479000      4.39021000     -5.89059000       6
N              -6.76187000      2.18590000     -2.25769000       7
N              -2.71692000     -1.11002000     -6.85740000       7
P               2.69255000      6.78057000     -1.61858000      15
H              -1.90653000      7.21099000     -0.65583900       1
H              -1.85394000     -0.67818600     -7.25262000       1
I               1.15688000     -3.83434000     -6.40651000      53
I              -2.45061000     -1.23220000      7.07325000      53
P              -0.88570800      1.56538000      7.40909000      15
H               0.86849200      5.32365000     -5.45074000       1
H               6.72476000     -1.79342000      3.35211000       1
H              -6.75451000      1.89544000     -3.26025000       1
I              -6.19468000     -2.33540000     -4.08720000      53
I               0.34970200      7.80212000      0.38956700      53
N               7.41170000     -1.57031000      2.60143000       7
I               0.38038300      0.39052900     -7.99961000      53
H              -2.79144000     -2.08273000     -7.23141000       1
H              -3.53825000     -0.57938900     -7.18569000       1
I               7.90859000     -0.85920200     -1.12483000      53
H              -2.44693000     -7.39449000     -2.15245000       1
P               6.37791000      4.11258000      2.92405000      15
N               4.64537000     -6.32522000      2.17028000       7
H              -1.94047000      7.30241000     -3.06115000       1
I               4.74814000     -6.35548000     -1.95442000      53
H              -5.43220000     -5.89338000      1.77506000       1
H               4.79742000     -5.33467000      4.02781000       1
I              -2.79690000     -5.46522000      5.49012000      53
H              -4.92491000      0.51306300      6.58303000       1
H              -3.50475000      7.35822000     -1.21567000       1
H               5.50836000     -5.89338000      1.77506000       1
I              -6.17998000     -2.53687000      4.87910000      53
I              -3.07708000      6.96678000      3.23824000      53
I               4.99597000      5.62302000     -3.50368000      53
H              -0.43143300      4.22048000     -7.14029000       1
H               5.42183000      2.08721000      5.96653000       1
H               1.90931000      4.59253000     -6.71669000       1
H               7.69872000     -2.46519000      2.15333000       1
C               5.14830000      1.16948000      6.48998000       6
H              -5.51873000      2.08721000      5.96653000       1
H              -7.70421000      2.60187000     -2.09035000       1
I               4.52315000      4.87326000      5.49012000      53
H               4.48899000     -5.01483000     -5.45074000       1
P              -1.06027000     -6.13210000     -6.10996000      15
C               4.72509000     -6.35947000      3.66091000       6
I               1.01877000     -7.66015000     -4.14857000      53
P              -4.68076000      4.20638000     -6.10996000      15
C              -5.79226000      1.16948000      6.48998000       6
C               0.85425000     -4.18649000      7.67662000       6
H               4.57086000     -7.29793000      1.79627000       1
P              -8.25902000     -1.00881000      2.91772000      15
H               3.82485000     -6.84121000      4.04429000       1
I              -6.81837000      5.51381000      1.02807000      53
I              -5.94459000      5.62302000     -3.50368000      53
H              -6.60124000      0.65694000      5.96676000       1
H               6.01564000      0.51306300      6.58303000       1
H               1.83840000     -4.59569000      7.44317000       1
I               8.22455000      3.51978000      0.35892800      53
H               3.85755000      2.14302000      7.81201000       1
H               8.23079000      0.10845100      3.57694000       1
H               0.07823260     -4.93642000      7.50624000       1
H              -4.08372000     -7.73661000     -2.09035000       1
I               0.70983200      4.26408000      7.90285000      53
N              -3.14137000     -8.15258000     -2.25769000       7
I               1.12538000      8.00309000     -4.08720000      53
H               7.40310000     -1.62601000     -4.98339000       1
H              -6.14313000     -5.33467000      4.02781000       1
I              -6.19241000     -6.35548000     -1.95442000      53
I               1.16762000     -7.55059000      4.94048000      53
H               4.07822000      7.87329000      2.15333000       1
I              -6.81888000      1.84350000     -5.78944000      53
C               8.58708000     -0.82498700      3.13709000       6
I               7.74268000     -4.82467000      1.02807000      53
N              -6.29518000     -6.32522000      2.17028000       7
I               1.14007000      7.80161000      4.87910000      53
N               4.67917000      1.52503000      7.85911000       7
P               2.60905000     -8.78865000     -1.56462000      15
H              -7.11650000     -5.79459000      1.84199000       1
H              -2.92033000     -8.95311000     -0.32000000       1
H               2.98296000     -6.91670000     -5.67557000       1
I              -2.46361000      6.50414000     -6.40651000      53
P              -4.58971000     -3.66537000      7.46306000      15
H               4.45244000      0.64787600      8.37775000       1
H               0.82147300     -3.82983000      8.70768000       1
H              -1.78210000      5.74279000      7.44317000       1
H              -3.01271000      7.01872000      5.76743000       1
H               9.27161000     -0.62266800      2.31099000       1
H              -3.13401000     -8.44304000     -3.26025000       1
H              -5.32846000     -6.92987000      3.94604000       1
C              -6.21546000     -6.35947000      3.66091000       6
I              -3.39210000      2.67884000     -8.63811000      53
C               4.84528000     -5.94827000     -5.89059000       6
I              -2.99131000     -4.47589000     -8.03661000      53
H               3.10426000      8.54506000      3.35211000       1
I               8.33883000      2.67833000     -4.14857000      53
P               6.25979000      4.20638000     -6.10996000      15
I              -2.42137000     -9.04954000      2.62117000      53
I              -6.41740000      4.87326000      5.49012000      53
H               5.61210000     -6.92987000      3.94604000       1
H               8.37568000     -0.11946800     -4.99987000       1
H              -9.22659000     -3.12749000     -0.65583900       1
P              -0.93896500      9.32967000      2.91772000      15
H              -6.45156000     -5.01483000     -5.45074000       1
C              -2.88755000     -9.30977000     -1.35105000       6
H              -6.36969000     -7.29793000      1.79627000       1
I               4.48275000     -1.60350000     -8.66875000      53
H               5.33133000     -6.56689000     -5.13311000       1
N               3.79120000      8.76817000      2.60143000       7
H              -3.54227000      5.40206000      7.50624000       1
H               3.18907000     -6.11801000     -7.14029000       1
C               8.30335000     -1.14427000     -5.36677000       6
H               8.03070000      5.86308000     -0.64992800       1
N               3.66990000     -6.69360000     -6.42625000       7
H               9.07313000     -1.44360000      3.89457000       1
H              -1.90340000     -9.71898000     -1.58451000       1
H              -5.60922000     -6.56689000     -5.13311000       1
I               0.54392600      0.29861300     10.05570000      53
