200
cutoff_factor=1.20000000 nneightol=1.20000000 Lattice="28.40633000       0.00000000       0.00000000       0.00000000      29.00821000       0.00000000       0.00000000       0.00000000      28.05829000" Properties=species:S:1:pos:R:3:Z:I:1
H              -0.16363700      1.54599000      0.53329700       1
H               1.43450000      1.32916000      0.10208200       1
N               0.80682500      1.86727000      0.72656100       7
I               1.37461000     -1.64695000     -0.43100200      53
I              -2.38426000      0.82190600     -0.70677600      53
H               1.10976000      0.55284200      2.34981000       1
C               1.19855000      1.62244000      2.14676000       6
P              -0.64079300     -0.96183800     -2.76595000      15
H               0.87941600      2.87243000      0.46710700       1
H               0.52687400      2.19091000      2.79354000       1
H               2.23061000      1.95333000      2.28238000       1
H              -1.43047000     -3.40999000      1.17010000       1
I               1.01750000      1.77869000     -3.36101000      53
H              -3.06501000     -2.77096000      0.79869200       1
C              -2.44152000     -3.25545000      1.55346000       6
H              -2.41748000     -2.65924000      2.46847000       1
I              -2.10939000      0.78479000      3.86851000      53
H               3.80592000     -1.19684000     -2.16954000       1
H              -1.31985000      3.12927000     -3.33272000       1
P               2.93591000     -3.40742000      1.64792000      15
I              -2.45601000     -3.48888000     -2.26275000      53
P              -4.31616000      1.67791000      1.66985000      15
I               1.57855000     -2.05353000      4.20799000      53
I               4.37284000      2.73457000     -0.34818400      53
H              -2.54314000      4.34365000     -1.60552000       1
H               4.86305000      0.25323800     -2.17905000       1
I               0.82498300      5.29428000     -0.62644000      53
C               4.82050000     -0.82742200     -2.33101000       6
H              -2.98599000      2.94950000     -3.54049000       1
N              -2.20398000      3.62659000     -3.56223000       7
I               1.14412000     -2.46872000     -4.92548000      53
I               5.29101000     -1.21000000      1.84505000      53
I              -2.98604000      4.63746000      1.74215000      53
N              -3.03704000     -4.58932000      1.87253000       7
I              -2.61232000     -0.03685300     -5.19303000      53
H              -5.42210000     -1.33535000     -1.66611000       1
H               0.26957700     -5.10125000     -2.90465000       1
H               2.03466000     -4.86508000     -2.68452000       1
H               5.52307000     -1.33535000     -1.66611000       1
P               3.01936000      4.25966000     -2.85998000      15
C              -2.47170000      4.75120000     -2.61657000       6
I               0.69508500     -5.69131000      1.74215000      53
I              -5.65416000     -1.21000000      1.84505000      53
H              -3.05674000     -5.19752000      1.03149000       1
H              -2.46434000     -5.07547000      2.58555000       1
H              -4.77298000     -0.79241100     -3.96091000       1
P              -0.61206800     -0.87603700      6.16916000      15
C               1.20943000     -5.57756000     -2.61657000       6
H              -2.12248000      3.04954000      5.07941000       1
H               1.13799000     -5.98512000     -1.60552000       1
H              -1.64646000      5.46369000     -2.68452000       1
H              -2.13343000      3.96365000     -4.54445000       1
H               4.57965000     -0.67059400     -4.43302000       1
H              -3.99783000     -4.49569000      2.24800000       1
H              -6.08212000      0.25323800     -2.17905000       1
I               1.02029000      5.15622000      3.83611000      53
N               5.20848000     -1.12090000     -3.74375000       7
H               1.16708000      0.06023250     -6.44359000       1
C              -6.12467000     -0.82742200     -2.33101000       6
H               4.20729000      5.13125000      1.03149000       1
I               4.50611000     -5.03449000     -0.62644000      53
H              -1.14037000      4.40066000      5.06823000       1
H              -0.36640500      0.64000600     -6.78115000       1
I               4.77673000      2.72435000      4.10366000      53
H               5.19007000     -2.14353000     -3.94973000       1
H              -3.41155000      5.22752000     -2.90465000       1
N              -5.73668000     -1.12090000     -3.74375000       7
H               5.18031000     -1.17205000      4.48470000       1
N              -2.10407000      4.07217000      5.28540000       7
H              -2.73290000      4.52248000      4.59613000       1
P               6.62901000      1.67791000      1.66985000      15
H               3.26621000      5.83308000      2.24800000       1
I               1.17660000      1.70419000      6.76639000      53
I              -2.61392000     -3.35701000      5.66813000      53
H               1.21395000      2.47646000     -6.56067000       1
I              -6.57233000      2.73457000     -0.34818400      53
P              -0.74521900      6.92135000      1.64792000      15
N               0.59438200      0.54637600     -7.15661000       7
H               3.90219000      0.09182450      6.12449000       1
H              -5.75509000     -2.14353000     -3.94973000       1
H               4.32775000     -2.18620000      5.48865000       1
N               4.22700000      5.73945000      1.87253000       7
H               6.17218000     -0.79241100     -3.96091000       1
H              -5.76486000     -1.17205000      4.48470000       1
H               0.94823000     -5.80629000      4.59613000       1
H              -7.13924000     -1.19684000     -2.16954000       1
H               4.79970000      5.25330000      2.58555000       1
H              -3.10574000     -3.00216000     -6.23560000       1
H              -1.40200000     -3.23975000     -6.74677000       1
N               5.10976000     -1.50911000      5.46691000       7
N               1.47714000     -6.70218000     -3.56223000       7
I               5.20998000      3.08217000     -4.82115000      53
H              -6.36551000     -0.67059400     -4.43302000       1
C               1.18990000      1.88025000     -7.47568000       6
H              -4.95127000     -2.00643000      5.69642000       1
I              -6.16843000      2.72435000      4.10366000      53
P              -4.24468000     -6.06911000     -2.85998000      15
H               1.54770000     -6.36512000     -4.54445000       1
I               4.70142000     -5.17255000      3.83611000      53
I               1.52203000      5.92049000     -5.16063000      53
H               0.57468000     -0.06182370     -7.99765000       1
C               4.84204000     -0.38449400      6.41257000       6
I              -5.73519000      3.08217000     -4.82115000      53
C              -2.43406000     -3.57063000     -6.88238000       6
P               2.99182000      4.23123000      6.26319000      15
I              -2.89120000     -7.59420000     -0.34818400      53
N              -5.83541000     -1.50911000      5.46691000       7
I              -6.43906000     -5.03449000     -0.62644000      53
H               2.54076000     -5.92811000      5.06823000       1
H               0.69513100     -7.37927000     -3.54049000       1
H              -5.27789000      0.32798900      6.34462000       1
H               2.36128000     -7.19950000     -3.33272000       1
N               1.57706000     -6.25660000      5.28540000       7
H               2.20095000      1.72571000     -7.85904000       1
C              -2.49205000      4.36565000      6.69813000       6
H               7.88016000     -2.77096000      0.79869200       1
I              -2.02273000      3.92570000     -7.18409000      53
H              -6.14547000      5.25330000      2.58555000       1
I               4.32651000     -0.55560800     -7.28699000      53
H               1.23162000     -4.88246000      6.85009000       1
H              -1.78949000      3.85772000      7.36303000       1
H               5.99389000     -2.00643000      5.69642000       1
H               5.66728000      0.32798900      6.34462000       1
H              -2.52285000     -4.64023000     -6.67933000       1
H              -6.73787000      5.13125000      1.03149000       1
I               5.20316000     -4.40828000     -5.16063000      53
H               6.94734000     -4.49569000      2.24800000       1
H               0.56641700      2.36474000     -8.23045000       1
I               8.56091000      0.82190600     -0.70677600      53
I               4.80803000      6.83989000     -2.26275000      53
H              -3.50663000      3.99623000      6.85960000       1
H              -5.11160000      6.91878000      1.17010000       1
H               4.19903000      7.55781000      0.79869200       1
P               2.99639000     -3.51516000     -7.35929000      15
C               4.82251000      7.07332000      1.55346000       6
H               4.56054000     -7.45634000      0.46710700       1
P              -4.37783000      1.72828000     -7.38122000      15
P              -0.63503100     -8.65086000      1.66985000      15
P              -8.00926000     -3.40742000      1.64792000      15
H               4.77060000     -0.79204700      7.42362000       1
I              -2.80644000      0.15858000      8.40270000      53
C              -6.10313000     -0.38449400      6.41257000       6
H              -6.61742000     -2.18620000      5.48865000       1
I              -5.74201000     -4.40828000     -5.16063000      53
I              -2.05406000     -7.24660000     -4.82115000      53
I              -6.24374000     -5.17255000      3.83611000      53
I              -2.48730000     -7.60441000      4.10366000      53
I              -2.30652000      8.68182000     -0.43100200      53
H               1.55865000     -7.27923000      5.07941000       1
N              -6.71817000      5.73945000      1.87253000       7
I               0.74141100     -2.40113000      8.68096000      53
C               1.18907000     -5.96312000      6.69813000       6
H              -2.44950000      5.44631000      6.85009000       1
H               5.83357000      6.91878000      1.17010000       1
H               7.95917000      2.94950000     -3.54049000       1
H               1.50895000      8.18524000     -3.94973000       1
H              -8.71456000      1.95333000      2.28238000       1
C               8.50364000     -3.25545000      1.55346000       6
H               8.52769000     -2.65924000      2.46847000       1
H              -2.75320000     -2.32064000     -8.56204000       1
H               1.84194000      8.99342000     -1.66611000       1
N               7.90812000     -4.58932000      1.87253000       7
H              -7.04297000      0.09182450      6.12449000       1
H               0.17449500     -6.33254000      6.85960000       1
I               7.95912000      4.63746000      1.74215000      53
N              -2.82579000     -3.32580000     -8.30258000       7
H               0.12479400      9.13193000     -2.16954000       1
H               4.84656000      7.66953000      2.46847000       1
P              -7.92581000      4.25966000     -2.85998000      15
I               1.60988000      9.11877000      1.84505000      53
I               8.48916000     -3.48888000     -2.26275000      53
I              -6.13714000      6.83989000     -2.26275000      53
H               3.51749000     -8.78278000      0.53329700       1
P               6.70048000     -6.06911000     -2.85998000      15
C              -6.12265000      7.07332000      1.55346000       6
H               7.88842000     -5.19752000      1.03149000       1
I              -2.10258000      8.27524000      4.20799000      53
H               4.20800000     -8.13786000      2.79354000       1
H               8.40203000      4.34365000     -1.60552000       1
H              -9.51066000      1.32916000      0.10208200       1
N               4.48795000     -8.46150000      0.72656100       7
I              -2.53701000      7.86005000     -4.92548000      53
H               7.53362000      5.22752000     -2.90465000       1
I               1.29687000     -9.50686000     -0.70677600      53
I               8.83577000      0.78479000      3.86851000      53
H              -6.17456000     -0.79204700      7.42362000       1
I              -9.57056000     -1.64695000     -0.43100200      53
I               0.74022100     -2.45850000     -9.37733000      53
P              -4.27222000     -6.09754000      6.26319000      15
I               1.65839000     -6.40307000     -7.18409000      53
I               8.33284000     -0.03685300     -5.19303000      53
H              -6.38462000     -7.45634000      0.46710700       1
H               0.64662000      8.14257000      5.48865000       1
C               1.13937000      9.50135000     -2.33101000       6
I              -6.61866000     -0.55560800     -7.28699000      53
H              -7.67896000      5.83308000      2.24800000       1
H               4.74119000      5.68854000     -6.67933000       1
H              -2.19811000     -3.86391000     -8.92706000       1
H               1.89164000     -6.47105000      7.36303000       1
H              -3.79625000     -3.64708000     -8.49585000       1
