200
cutoff_factor=1.20000000 nneightol=1.20000000 Lattice="29.56004000       0.00000000       0.00000000       0.00000000      28.54718000       0.00000000       0.00000000       0.00000000      29.78518000" Properties=species:S:1:pos:R:3:Z:I:1
I              -0.84355300      0.21986500     -0.00197810      53
P               1.06586000     -2.33418000     -0.01653580      15
H               0.92370900      2.03160000      1.69615000       1
H               1.72572000      1.61900000     -2.09420000       1
H               0.17576400      1.33773000     -2.95378000       1
H               1.12976000      0.91169700      3.08407000       1
C               0.93674900      2.07740000     -2.69492000       6
C               1.25575000      1.93815000      2.73235000       6
H               0.48701500      2.91572000     -2.15787000       1
I               3.65207000     -0.47322900      0.12103600      53
H              -1.86723000     -1.90231000      2.86193000       1
H              -3.09345000     -1.67256000      1.73428000       1
H              -1.70967000     -1.83306000     -3.04160000       1
P              -3.38451000      2.17147000     -0.00928810      15
I               0.93834600     -2.24611000     -3.23056000      53
I               0.74804900     -2.40426000      3.24178000      53
H              -2.88282000     -0.62197600     -3.07046000       1
H               2.29844000      2.24994000      2.82691000       1
N              -2.87010000     -1.65147000      2.74840000       7
H              -3.00634000     -0.66904900      3.05952000       1
H              -0.58868300      2.56650000      3.54117000       1
I              -1.56250000     -4.18937000     -0.02212010      53
N               0.41537700      2.83658000      3.57997000       7
N              -2.66369000     -1.59169000     -3.37740000       7
H              -3.68698000     -2.54358000     -1.79557000       1
I               2.93688000      4.01172000     -0.02501790      53
N               1.54230000      2.59400000     -3.95681000       7
I              -1.53451000      4.73768000     -0.02212010      53
I              -3.18926000      2.01330000      3.26420000      53
I              -3.30362000      1.98971000     -3.22929000      53
H               0.50197400      3.82501000      3.27060000       1
H               1.97889000      1.83124000     -4.52048000       1
I              -5.24432000     -0.47322900      0.12103600      53
C              -3.68308000     -2.56663000     -2.88765000       6
H              -2.61643000     -1.56614000     -4.41620000       1
H               0.74159100      2.80928000      4.56716000       1
H               2.26970000      3.29926000     -3.76694000       1
H               0.82602000      3.03324000     -4.57613000       1
I               2.90888000     -4.91532000     -0.02501790      53
H               4.09674000     -2.28957000      3.31620000       1
C              -3.76377000     -2.58977000      3.48987000       6
H               4.23720000     -2.27205000     -3.27957000       1
H              -3.41090000     -3.56143000     -3.24756000       1
P               5.51187000      2.17147000     -0.00928810      15
H              -3.59033000     -3.60119000      3.11544000       1
H               5.20940000     -2.54358000     -1.79557000       1
H               0.47397500     -5.10203000      3.27060000       1
H              -4.65919000     -2.27205000     -3.27957000       1
H              -4.79965000     -2.28957000      3.31620000       1
H               5.80294000     -1.67256000      1.73428000       1
H              -3.52260000     -2.52857000      4.55321000       1
H               0.45901600     -6.01132000     -2.15787000       1
C               5.21331000     -2.56663000     -2.88765000       6
H               5.89004000     -0.66904900      3.05952000       1
P               1.09386000      6.59287000     -0.01653580      15
C               5.13262000     -2.58977000      3.48987000       6
I              -0.87401900      0.29603000      6.68503000      53
I               5.59276000      1.98971000     -3.22929000      53
H               6.01357000     -0.62197600     -3.07046000       1
I              -1.56420000     -0.51390700     -6.61615000      53
N               6.02629000     -1.65147000      2.74840000       7
I               5.70713000      2.01330000      3.26420000      53
P               1.14080000     -2.24549000     -6.43334000      15
P               0.93970400     -2.30357000      6.45538000      15
I               2.92720000      0.40906000     -6.39772000      53
N               0.38737800     -6.09046000      3.57997000       7
H              -3.56233000      5.32585000      3.11544000       1
H              -3.38290000      5.36562000     -3.24756000       1
H               5.30606000     -3.60119000      3.11544000       1
H               2.24170000     -5.62778000     -3.76694000       1
H               0.89571100     -6.89544000      1.69615000       1
I              -5.95951000      4.01172000     -0.02501790      53
N               6.23269000     -1.59169000     -3.37740000       7
H               5.48549000     -3.56143000     -3.24756000       1
H              -0.61668100     -6.36055000      3.54117000       1
I               0.77604800      6.52279000      3.24178000      53
I               3.61230000     -0.59560500      6.44280000      53
C               0.90875000     -6.84965000     -2.69492000       6
H               5.37378000     -2.52857000      4.55321000       1
I               0.96634500      6.68093000     -3.23056000      53
H               0.79802100     -5.89380000     -4.57613000       1
H              -6.59795000      2.24994000      2.82691000       1
P              -3.26966000      2.26305000     -6.43874000      15
P              -3.41251000     -6.75558000     -0.00928810      15
H              -3.65898000      6.38346000     -1.79557000       1
H               2.27044000     -6.67710000      2.82691000       1
I              -0.59706500      3.97102000     -6.45132000      53
C               1.22775000     -6.98890000      2.73235000       6
N               1.51431000     -6.33305000     -3.95681000       7
H              -7.17067000      1.61900000     -2.09420000       1
P              -3.51822000      2.11493000      6.46079000      15
H               0.71359300     -6.11777000      4.56716000       1
I              -5.98751000     -4.91532000     -0.02501790      53
H               1.69772000     -7.30804000     -2.09420000       1
H              -1.83923000      7.02474000      2.86193000       1
H               7.02916000     -1.90231000      2.86193000       1
I               2.67317000      3.84651000      6.27798000      53
H               6.27996000     -1.56614000     -4.41620000       1
C              -3.65508000      6.36042000     -2.88765000       6
H              -1.68167000      7.09399000     -3.04160000       1
I              -1.75982000     -4.15757000      6.49640000      53
H               7.18672000     -1.83306000     -3.04160000       1
I               8.05283000      0.21986500     -0.00197810      53
H              -3.06545000      7.25449000      1.73428000       1
C              -3.73577000      6.33727000      3.48987000       6
H               0.14776500     -7.58931000     -2.95378000       1
H               5.33406000      5.32585000      3.11544000       1
I              -0.62506300     -4.95602000     -6.45132000      53
P              -7.83053000     -2.33418000     -0.01653580      15
I              -1.73182000      4.76948000      6.49640000      53
N              -2.84210000      7.27558000      2.74840000       7
I              -3.21725000     -6.91375000      3.26420000      53
H              -6.62669000      3.29926000     -3.76694000       1
I               3.78500000     -4.06439000     -6.20910000      53
C              -7.64064000      1.93815000      2.73235000       6
I              -3.33162000     -6.93734000     -3.22929000      53
H               5.51349000      5.36562000     -3.24756000       1
I              -5.28409000     -0.59560500      6.44280000      53
H              -7.97268000      2.03160000      1.69615000       1
H              -7.76663000      0.91169700      3.08407000       1
I               7.33388000     -4.18937000     -0.02212010      53
H               5.23740000      6.38346000     -1.79557000       1
H              -6.91750000      1.83124000     -4.52048000       1
H               4.12474000      6.63747000      3.31620000       1
N              -2.63569000      7.33536000     -3.37740000       7
I               2.64517000     -5.08053000      6.27798000      53
H               4.26520000      6.65499000     -3.27957000       1
H              -3.49460000      6.39847000      4.55321000       1
H               1.95089000     -7.09580000     -4.52048000       1
C              -7.95964000      2.07740000     -2.69492000       6
H               1.10176000     -8.01535000      3.08407000       1
H               1.16442000      2.03805000     -8.34092000       1
P               5.37816000      2.11493000      6.46079000      15
P               5.48387000     -6.75558000     -0.00928810      15
C               5.24131000      6.36042000     -2.88765000       6
N              -7.35408000      2.59400000     -3.95681000       7
H              -4.63119000      6.65499000     -3.27957000       1
I              -0.87155100     -8.70718000     -0.00197810      53
I               7.36188000      4.73768000     -0.02212010      53
I              -5.96918000      0.40906000     -6.39772000      53
I               3.81300000      4.86266000     -6.20910000      53
H              -4.77165000      6.63747000      3.31620000       1
P               5.62672000      2.26305000     -6.43874000      15
I              -7.95804000     -2.24611000     -3.23056000      53
C               5.16062000      6.33727000      3.48987000       6
H              -2.58843000      7.36091000     -4.41620000       1
I              -5.11138000     -4.06439000     -6.20910000      53
H               1.62094000      2.79428000      8.47793000       1
I              -8.14834000     -2.40426000      3.24178000      53
H              -8.40937000      2.91572000     -2.15787000       1
H              -3.49577000     -1.55114000     -8.32696000       1
I              -0.81555400      9.14691000     -0.00197810      53
H              -2.70813000     -2.73538000      8.37364000       1
I               3.68007000      8.45382000      0.12103600      53
H              -2.97834000      8.25800000      3.05952000       1
H              -3.86100000     -1.53339000      8.31799000       1
P               0.96770300      6.62347000      6.45538000      15
H              -2.85482000      8.30507000     -3.07046000       1
H              -8.72062000      1.33773000     -2.95378000       1
P               1.16880000      6.68155000     -6.43334000      15
I              -5.08339000      4.86266000     -6.20910000      53
H               8.30770000      2.56650000      3.54117000       1
I               5.56476000     -6.93734000     -3.22929000      53
H               5.83094000      7.25449000      1.73428000       1
H              -6.65469000     -5.62778000     -3.76694000       1
I               5.67913000     -6.91375000      3.26420000      53
H              -2.41732000     -1.26736000      9.12719000       1
H               5.40178000      6.39847000      4.55321000       1
N              -8.48101000      2.83658000      3.57997000       7
H               9.07215000      1.33773000     -2.95378000       1
I              -6.22322000      3.84651000      6.27798000      53
C               0.92325200      1.97685000     -9.40426000       6
N              -3.14472000     -1.97263000      8.93732000       7
H               0.82646900      0.79899200      9.64656000       1
I              -9.73994000      0.21986500     -0.00197810      53
H              -8.15480000      2.80928000      4.56716000       1
H              -8.07037000      3.03324000     -4.57613000       1
H              -8.39441000      3.82501000      3.27060000       1
H              -6.62595000     -6.67710000      2.82691000       1
P              -3.29766000     -6.66399000     -6.43874000      15
H               5.03539000     -1.53339000      8.31799000       1
H              -0.11262600      2.27705000     -9.57793000       1
H              -0.42182000      2.08836000      9.61456000       1
N               6.05429000      7.27558000      2.74840000       7
H               1.09669000      0.96543300     -9.77868000       1
I               7.33219000     -0.51390700     -6.61615000      53
I              -5.21632000      8.45382000      0.12103600      53
I               1.46977000     -2.34712000     -9.62992000      53
N               1.57367000      2.76873000      9.51673000       7
P              -3.54622000     -6.81212000      6.46079000      15
I               0.90574200     -2.57692000      9.66483000      53
H               5.40061000     -1.55114000     -8.32696000       1
H               9.38340000      2.91572000     -2.15787000       1
I               3.62407000     -9.40027000      0.12103600      53
H               9.82010000      2.03160000      1.69615000       1
C               0.55428700      1.79379000     10.00650000       6
N              -3.82199000     -1.52384000     -9.31416000       7
I              -6.25122000     -5.08053000      6.27798000      53
P              -7.80253000      6.59287000     -0.01653580      15
N               6.26069000      7.33536000     -3.37740000       7
