200
cutoff_factor=1.20000000 nneightol=1.20000000 Lattice="29.10054000       0.00000000       0.00000000       0.00000000      28.43078000       0.00000000       0.00000000       0.00000000      29.22791000" Properties=species:S:1:pos:R:3:Z:I:1
H               1.34061000     -0.90209100      0.06728880       1
I               0.83861500      1.13365000      1.57867000      53
N               1.82183000     -1.77108000     -0.25178500       7
H               0.10511600     -2.70981000     -1.04784000       1
I              -2.78249000      0.34036500     -1.04828000      53
P              -0.81573200      2.86067000     -0.51033700      15
H               2.29784000     -1.59261000     -1.16055000       1
C               0.88719700     -2.93324000     -0.31867600       6
H               0.45547100     -3.08373000      0.67293600       1
H               2.57821000     -1.93438000      0.43749200       1
I               1.13208000      1.77017000     -2.89029000      53
H              -1.59725000      0.73026700      3.24932000       1
H               1.45532000     -3.81463000     -0.62334600       1
H              -2.49051000     -0.82455500      3.31098000       1
H              -2.31574000      0.17552500     -3.53779000       1
C              -2.54885000      0.25117900      3.48683000       6
H              -1.01465000      0.98345500     -4.17911000       1
I              -2.39472000     -3.33725000      1.69218000      53
H               3.47260000      2.59881000     -1.06598000       1
H              -3.35655000      0.69259400      2.89863000       1
N              -1.77797000      0.32138100     -4.41939000       7
H              -1.30265000     -0.56782200     -4.68486000       1
P               2.79322000      0.26834300      4.03445000      15
P              -4.38162000     -2.36577000     -0.57170500      15
I               1.43953000     -2.60341000      4.04498000      53
I              -2.91447000      3.90235000      1.64673000      53
I               4.81560000     -0.81360200      1.63095000      53
H               5.07176000      1.53038000      0.44854000       1
I               4.34971000     -1.43142000     -2.80267000      53
C               4.49137000      2.98322000     -0.98413300       6
H               4.49635000      2.93367000      1.13702000       1
I               1.04872000      5.41002000     -0.15354800      53
I              -2.82231000     -3.89027000     -2.87027000      53
N               5.04837000      2.56438000      0.33685700       7
N              -2.83863000      0.47621600      4.93396000       7
I               0.62856800     -2.08141000     -5.29381000      53
H              -4.99809000      2.91094000      0.47765500       1
I              -2.36216000      4.50162000     -2.89386000      53
H              -2.09656000      0.06901220      5.52611000       1
P               2.94213000      0.28235700     -5.13033000      15
H               5.12239000      2.56832000     -1.77351000       1
H              -2.88465000      1.49320000      5.16138000       1
H               4.49183000      4.07426000     -1.02676000       1
H              -5.94743000      1.53038000      0.44854000       1
C              -2.62624000      0.84512600     -5.52337000       6
H              -3.05202000      1.79834000     -5.20439000       1
H               0.17935300      5.34311000      3.35790000       1
P              -0.72723100     -4.88200000      3.95895000      15
I               0.77341200      1.33275000      6.21901000      53
H              -3.75086000      0.05681850      5.21760000       1
I              -6.20360000     -0.81360200      1.63095000      53
I               4.22429000      3.14161000      3.79547000      53
H              -0.08149670      5.22117000     -3.87168000       1
N              -5.97083000      2.56438000      0.33685700       7
H               1.57281000      5.23337000     -3.56317000       1
H              -5.89681000      2.56832000     -1.77351000       1
H              -3.41637000      0.12009400     -5.73137000       1
H               4.29781000     -3.36601000      3.88489000       1
I               1.39195000     -5.88576000     -2.89386000      53
H               6.02110000      2.91094000      0.47765500       1
I               0.83963000     -6.48503000      1.64673000      53
H              -1.99388000      0.98777200     -6.40191000       1
H               2.29307000      4.65520000      4.40442000       1
I               4.80283000     -4.97736000     -0.15354800      53
H               1.60184000      6.21079000      2.68737000       1
H              -2.77327000     -6.31312000     -1.02676000       1
H              -2.29879000      6.57274000     -0.62334600       1
N               0.83073800      5.64057000     -4.15532000       7
H               4.53882000     -3.72982000     -3.92790000       1
P               6.63757000     -2.36577000     -0.57170500      15
C               0.96948700      6.06815000      3.56591000       6
P              -0.80250200     -4.95468000     -5.05482000      15
H               3.93346000     -5.04426000      3.35790000       1
H              -6.52284000      2.93367000      1.13702000       1
C              -6.52783000      2.98322000     -0.98413300       6
H               5.35595000     -4.17658000      2.68737000       1
H               1.17885000      4.33980000     -5.77830000       1
C               4.72359000     -4.31923000      3.56591000       6
I              -6.66949000     -1.43142000     -2.80267000      53
H               3.67261000     -5.16620000     -3.87168000       1
N               1.81775000      5.54440000      4.66989000       7
I              -2.53729000     -3.39418000      6.19899000      53
H              -5.66325000     -4.17658000      2.68737000       1
H              -1.24399000     -7.47644000      0.47765500       1
I               5.10890000      2.56095000     -5.04430000      53
I               1.27465000      1.82710000     -7.39710000      53
H              -6.52737000      4.07426000     -1.02676000       1
H               0.78471900      6.65755000     -3.92790000       1
N               4.58484000     -4.74680000     -4.15532000       7
H               1.27998000      5.39855000      5.55149000       1
C               1.12052000      5.41553000     -5.60245000       6
H               1.45302000     -2.59604000      7.31577000       1
I              -3.07376000      3.79160000      6.28661000      53
I              -6.21637000     -4.97736000     -0.15354800      53
C              -2.77373000     -7.40416000     -0.98413300       6
H              -4.68401000     -4.18090000      4.91017000       1
I               4.98767000     -0.66273500      6.19542000      53
C              -2.86691000      7.45414000     -0.31867600       6
H              -2.76874000     -7.45371000      1.13702000       1
H              -3.29863000      7.30364000      0.67293600       1
H               0.54370700      7.02137000      3.88489000       1
H              -7.54660000      2.59881000     -1.06598000       1
P               2.93837000     -7.52671000     -0.51033700      15
P              -4.48134000      5.50538000      3.95895000      15
N              -2.21672000     -7.82300000      0.33685700       7
H               0.82246200     -1.09010000      8.06252000       1
I              -5.91030000      2.56095000     -5.04430000      53
H               7.66264000      0.69259400      2.89863000       1
H               5.32691000     -5.15401000     -3.56317000       1
H              -2.14270000     -7.81906000     -1.77351000       1
I               8.23671000      0.34036500     -1.04828000      53
H               0.90062600     -2.28936000     -7.95226000       1
H               2.58108000      6.20648000      4.91017000       1
I               4.44278000      6.49711000     -2.87027000      53
I              -6.79490000      3.14161000      3.79547000      53
H              -0.19676800     -2.56555000      8.02330000       1
C              -6.29561000     -4.31923000      3.56591000       6
C               0.82200100     -2.18114000      8.10515000       6
H              -6.48037000     -3.72982000     -3.92790000       1
H              -6.72139000     -3.36601000      3.88489000       1
H              -5.69228000     -5.15401000     -3.56317000       1
H               0.31281100      5.85695000     -6.19065000       1
P               2.88347000      8.02161000     -0.57170500      15
H              -1.17590000      8.45300000      0.43749200       1
H               2.07212000      5.89462000     -5.83996000       1
H              -3.64899000      7.67757000     -1.04784000       1
N              -5.44734000     -4.84297000      4.66989000       7
H              -8.44099000     -1.93438000      0.43749200       1
I              -6.03153000     -0.66273500      6.19542000      53
H               4.06692000     -4.53043000     -6.19065000       1
P              -4.55661000      5.43270000     -5.05482000      15
I              -3.04080000     -7.24577000      3.79547000      53
H              -3.79249000     -7.78857000     -1.06598000       1
I               4.87038000      7.05012000      1.69218000      53
N               5.57186000     -4.84297000      4.66989000       7
H              -4.97202000     -5.73218000      4.40442000       1
I               4.50900000     -1.32067000     -7.44255000      53
N              -1.93227000      8.61630000     -0.25178500       7
C               4.87462000     -4.97184000     -5.60245000       6
H              -8.72136000     -1.59261000     -1.16055000       1
H               7.26833000      0.05681850      5.21760000       1
I              -2.75711000     -4.08937000     -7.51061000      53
H              -1.45626000      8.79476000     -1.16055000       1
I              -2.53423000      4.35075000     -7.45833000      53
H               5.03409000     -4.98883000      5.55149000       1
N              -6.43435000     -4.74680000     -4.15532000       7
H              -5.19298000     -4.49275000     -5.83996000       1
P              -0.78589600      2.85726000      8.51757000      15
H               6.33519000     -4.18090000      4.91017000       1
I              -2.31457000      7.78397000      4.04498000      53
H              -2.19333000     -8.85700000      0.44854000       1
I               0.68034100     -6.59577000      6.28661000      53
I               8.10472000      3.90235000      1.64673000      53
C               8.47035000      0.25117900      3.48683000       6
P              -8.22597000      0.26834300      4.03445000      15
H               8.52868000     -0.82455500      3.31098000       1
H               3.70084000      2.51321000      8.04144000       1
H               2.42538000     -2.31208000     -8.61162000       1
N               1.45264000     -2.65864000     -8.75242000       7
I              -2.62064000      0.24566200      8.93573000      53
H              -7.08574000     -5.04426000      3.35790000       1
N              -9.19736000     -1.77108000     -0.25178500       7
H               5.82622000     -4.49275000     -5.83996000       1
H               8.70346000      0.17552500     -3.53779000       1
I               8.62448000     -3.33725000      1.69218000      53
I               0.59560200      8.95596000     -2.80267000      53
P               6.53786000      5.50538000      3.95895000      15
H               6.04718000     -5.73218000      4.40442000       1
I              -6.14882000      7.05012000      1.69218000      53
H               1.47604000     -3.69264000     -8.64074000       1
I               8.19688000     -3.89027000     -2.87027000      53
H               7.60282000      0.12009400     -5.73137000       1
I              -2.15619000     -7.82643000     -5.04430000      53
N               8.18057000      0.47621600      4.93396000       7
H              -5.98511000     -4.98883000      5.55149000       1
P              -8.07706000      0.28235700     -5.13033000      15
I              -2.54700000      0.18699600     -9.24283000      53
H               4.12484000      2.08062000     -8.41634000       1
I               1.21987000     -6.03662000     -7.45833000      53
I              -6.57642000      6.49711000     -2.87027000      53
H               7.96718000      1.79834000     -5.20439000       1
C              -6.14458000     -4.97184000     -5.60245000       6
H               4.93296000     -6.04758000     -5.77830000       1
H              -9.67859000     -0.90209100      0.06728880       1
H               8.13455000      1.49320000      5.16138000       1
I               1.06149000      9.57378000      1.63095000      53
H              -7.34659000     -5.16620000     -3.87168000       1
H              -2.41350000      9.48529000      0.06728880       1
I               0.81323900      5.56339000      8.04100000      53
P               6.46259000      5.43270000     -5.05482000      15
N               1.37900000     -2.59998000      9.42614000       7
P              -4.48510000     -2.30369000      8.57894000      15
H               5.05104000      1.40839000      8.46593000       1
I              -6.51020000     -1.32067000     -7.44255000      53
H               9.42195000      0.73026700      3.24932000       1
H               0.70208500     -8.58903000     -5.20439000       1
C               8.39296000      0.84512600     -5.52337000       6
P              -0.71225700      2.79859000     -9.66098000      15
H               2.35174000     -2.25341000      9.56693000       1
C               4.48292000      2.28978000      8.77060000       6
