200
cutoff_factor=1.20000000 nneightol=1.20000000 Lattice="28.72047000       0.00000000       0.00000000       0.00000000      29.79118000       0.00000000       0.00000000       0.00000000      28.54492000" Properties=species:S:1:pos:R:3:Z:I:1
I               0.61725100      0.95355200     -0.65438800      53
P              -1.98472000     -0.92457800     -0.75093400      15
H               2.03666000     -1.47085000      1.25292000       1
H               1.15632000     -1.05811000      2.76118000       1
H              -1.54691000      1.99070000      2.09660000       1
I              -2.12373000     -0.56965500      2.46845000      53
C               2.12333000     -1.33119000      2.33293000       6
H               2.76523000      0.67179900      2.16635000       1
I              -0.23630200     -3.60370000     -0.60951100      53
H              -1.31242000      3.30999000      1.06439000       1
H               2.16925000      0.32678100     -3.08407000       1
N              -1.30202000      3.00136000      2.05551000       7
H              -0.32230600      3.10807000      2.38798000       1
N               3.08618000     -0.21767200      2.59020000       7
I              -3.77952000      1.79882000     -0.91192200      53
H               3.00638000     -1.24991000     -2.90464000       1
H               2.50839000     -2.23725000      2.80617000       1
H              -2.08986000      2.66852000     -2.80370000       1
I              -1.85186000     -0.92965800     -3.93521000      53
P               2.47764000      3.62255000     -0.76703400      15
C               2.74841000     -0.44468800     -3.59438000       6
H               4.02986000     -0.44173200      2.22091000       1
H               1.04385000     -1.44798000     -4.33052000       1
H               3.20995000     -0.03457420      3.60981000       1
I               2.31213000      3.44460000      2.49164000      53
H              -0.71577600      3.07083000     -3.73012000       1
N              -1.59867000      3.42582000     -3.32091000       7
H              -1.33022000      4.13589000     -2.60647000       1
I               4.27653000     -2.71220000     -0.69037000      53
N               1.91080000     -1.01450000     -4.69174000       7
C              -2.24302000      3.82434000      2.86690000       6
H              -1.88753000     -4.08566000      2.79545000       1
H              -4.86060000     -0.44173200      2.22091000       1
I              -0.28663300      5.35282000     -0.60951100      53
I              -4.61393000     -2.71220000     -0.69037000      53
H               3.65035000     -0.01400570     -4.03525000       1
I               5.11094000      1.79882000     -0.91192200      53
H              -3.25114000      3.69219000      2.46756000       1
H               1.61099000     -0.27272600     -5.36053000       1
H              -1.27988000     -4.82064000     -2.60647000       1
H              -2.19523000      3.48259000      3.90329000       1
I               2.15307000      3.53640000     -3.94789000      53
H              -1.26209000     -5.64654000      1.06439000       1
H              -1.93786000      4.87087000      2.79545000       1
P               2.52797000     -5.33398000     -0.76703400      15
H               2.45169000     -1.70817000     -5.25090000       1
P              -2.03342000     -0.79359500      5.71387000      15
I              -0.24674300      1.85515000      5.90894000      53
I               0.52583900     -2.67406000      5.64444000      53
C              -2.19269000     -5.13219000      2.86690000       6
H              -0.27197500     -5.84845000      2.38798000       1
N              -5.80428000     -0.21767200      2.59020000       7
N              -1.25168000     -5.95517000      2.05551000       7
C              -2.49316000      4.02282000     -4.35708000       6
I               2.36246000     -5.51193000      2.49164000      53
H              -6.12522000      0.67179900      2.16635000       1
H              -1.92524000     -4.08845000     -4.81396000       1
H              -5.24011000     -0.01400570     -4.03525000       1
N              -1.54834000     -5.53071000     -3.32091000       7
H              -2.71287000      3.25867000     -5.10447000       1
H              -3.20081000     -5.26433000      2.46756000       1
H              -5.88408000     -1.24991000     -2.90464000       1
H              -5.68050000     -0.03457420      3.60981000       1
H              -3.41166000      4.35810000     -3.87000000       1
H              -3.36133000     -4.59843000     -3.87000000       1
H              -0.66544500     -5.88570000     -3.73012000       1
P               6.90574000     -0.92457800     -0.75093400      15
C              -2.44283000     -4.93371000     -4.35708000       6
H              -2.14490000     -5.47394000      3.90329000       1
I               2.20340000     -5.42013000     -3.94789000      53
H              -6.85380000     -1.47085000      1.25292000       1
H              -1.97557000      4.86808000     -4.81396000       1
C              -6.14205000     -0.44468800     -3.59438000       6
H               5.63932000      3.69219000      2.46756000       1
H              -2.03953000     -6.28800000     -2.80370000       1
I               4.23933000      1.08750000      5.69929000      53
I               6.76672000     -0.56965500      2.46845000      53
P               2.35557000      3.72327000      5.74115000      15
C              -6.76713000     -1.33119000      2.33293000       6
H              -6.38206000     -2.23725000      2.80617000       1
I               0.44115700      1.00392000     -7.24192000      53
H              -6.72121000      0.32678100     -3.08407000       1
P              -6.41282000      3.62255000     -0.76703400      15
H              -1.49657000     -6.96582000      2.09660000       1
I              -4.65113000      1.08750000      5.69929000      53
P              -2.15541000     -0.84608800     -7.14342000      15
I               4.22619000      6.24433000     -0.69037000      53
I              -3.88799000     -3.38325000      5.64265000      53
H               2.45806000      6.71928000      2.80617000       1
I              -4.66426000      6.24433000     -0.69037000      53
H               6.80060000      2.66852000     -2.80370000       1
I              -6.57832000      3.44460000      2.49164000      53
H               1.98632000      7.48567000      1.25292000       1
H               7.34355000      1.99070000      2.09660000       1
I              -0.27164900     -3.48186000     -7.18527000      53
H               5.47880000      4.35810000     -3.87000000       1
I               0.66758200     -8.00298000     -0.65438800      53
H               1.84843000     -1.12849000      7.78009000       1
H              -2.66254000     -5.69786000     -5.10447000       1
I               7.03860000     -0.92965800     -3.93521000      53
I              -3.72919000     -7.15770000     -0.91192200      53
P               2.40590000     -5.23325000      5.74115000      15
H               5.68965000     -5.26433000      2.46756000       1
H               5.52913000     -4.59843000     -3.87000000       1
C               6.64743000      3.82434000      2.86690000       6
C               2.07300000      7.62534000      2.33293000       6
I               5.00246000     -3.38325000      5.64265000      53
H              -7.73414000     -1.05811000      2.76118000       1
P              -2.03505000      8.03195000     -0.75093400      15
H               7.57803000      3.30999000      1.06439000       1
P              -6.36249000     -5.33398000     -0.76703400      15
P               2.29573000      3.59357000     -7.17070000      15
I              -8.27321000      0.95355200     -0.65438800      53
H              -1.92779000      2.86120000      7.63367000       1
N               7.58844000      3.00136000      2.05551000       7
H               1.10598000      7.89842000      2.76118000       1
I               0.47550800      6.28247000      5.64444000      53
I              -4.03547000      1.71310000     -7.24012000      53
N              -6.97965000     -1.01450000     -4.69174000       7
H              -6.43877000     -1.70817000     -5.25090000       1
H               2.58574000      0.48091100      8.07061000       1
H               6.69522000      3.48259000      3.90329000       1
I               4.13274000     -2.71421000     -6.97563000      53
I              -6.73739000      3.53640000     -3.94789000      53
H               7.00293000     -4.08566000      2.79545000       1
H               6.17758000      3.25867000     -5.10447000       1
N               7.29179000      3.42582000     -3.32091000       7
C               6.39730000      4.02282000     -4.35708000       6
H               0.99351800      7.50855000     -4.33052000       1
H               2.95605000      7.70662000     -2.90464000       1
C               2.06815000     -0.36434900      8.52749000       6
I              -3.93832000      5.57328000      5.64265000      53
I              -4.75772000     -2.71421000     -6.97563000      53
I               5.16127000     -7.15770000     -0.91192200      53
I               4.85499000      1.71310000     -7.24012000      53
I              -6.52799000     -5.51193000      2.49164000      53
C               6.69776000     -5.13219000      2.86690000       6
H               6.95260000      4.87087000      2.79545000       1
P               6.85703000     -0.79359500      5.71387000      15
H               7.56024000      4.13589000     -2.60647000       1
I              -2.17406000      8.38687000      2.46845000      53
H               2.81556000     -8.28473000      2.16635000       1
I              -0.32198000      5.47467000     -7.18527000      53
H              -7.27947000     -0.27272600     -5.36053000       1
H              -7.84661000     -1.44798000     -4.33052000       1
H               1.14965000     -0.02906430      9.01457000       1
H              -2.76849000      4.29664000      7.52404000       1
I              -1.90219000      8.02687000     -3.93521000      53
C               6.44763000     -4.93371000     -4.35708000       6
I              -2.17608000     -0.85076600      8.93667000      53
I              -0.19641200     -7.10137000      5.90894000      53
P               2.34606000     -5.36296000     -7.17070000      15
H              -2.71816000     -4.65989000      7.52404000       1
N              -2.46868000      3.55486000      8.19283000       7
H               2.40136000      7.24836000     -5.25090000       1
H               2.18425000     -1.08677000     -8.98127000       1
I               4.95213000      5.57328000      5.64265000      53
H               7.61057000     -4.82064000     -2.60647000       1
I               8.65415000     -3.60370000     -0.60951100      53
H               6.96522000     -4.08845000     -4.81396000       1
N               1.86047000      7.94202000     -4.69174000       7
H               8.56815000      3.10807000      2.38798000       1
H               2.21958000     -8.62975000     -3.08407000       1
P              -6.53489000      3.72327000      5.74115000      15
I              -6.68706000     -5.42013000     -3.94789000      53
H               8.17468000      3.07083000     -3.73012000       1
H               6.74555000     -5.47394000      3.90329000       1
H               7.62836000     -5.64654000      1.06439000       1
I               9.50771000      0.95355200     -0.65438800      53
N               3.03585000      8.73885000      2.59020000       7
C               2.69808000      8.51184000     -3.59438000       6
H               3.97953000      8.51479000      2.22091000       1
H              -3.33563000      3.12139000      8.55405000       1
H               6.85093000     -6.28800000     -2.80370000       1
H              -6.43239000      6.71928000      2.80617000       1
H               6.91489000      4.86808000     -4.81396000       1
N               7.34212000     -5.53071000     -3.32091000       7
I              -9.12676000     -3.60370000     -0.60951100      53
P               6.73505000     -0.84608800     -7.14342000      15
H               6.22791000     -5.69786000     -5.10447000       1
N               7.63877000     -5.95517000      2.05551000       7
H              -0.67880200     -4.40117000      8.84931000       1
H              -1.87746000     -6.09533000      7.63367000       1
I               0.56692000      9.91008000     -0.65438800      53
H              -0.72913300      4.55536000      8.84931000       1
H               2.11892000      9.28331000     -3.08407000       1
H              -9.21276000      3.10807000      2.38798000       1
H               3.84553000     -1.31634000      9.15445000       1
I               2.65912000      3.63970000      8.94936000      53
N               3.13651000     -9.17420000      2.59020000       7
I              -2.07340000     -9.52618000      2.46845000      53
N               2.96264000     -0.96134500      9.56365000       7
H              -4.91093000      8.51479000      2.22091000       1
P              -1.93439000     -9.88110000     -0.75093400      15
N              -2.41835000     -5.40167000      8.19283000       7
P              -6.48456000     -5.23325000      5.74115000      15
H               3.15962000      8.92195000      3.60981000       1
H              -5.93441000      7.70662000     -2.90464000       1
I               8.60382000      5.35282000     -0.60951100      53
P              -2.08375000      8.16293000      5.71387000      15
