200
cutoff_factor=1.20000000 nneightol=1.20000000 Lattice="28.60469000       0.00000000       0.00000000       0.00000000      27.94033000       0.00000000       0.00000000       0.00000000      29.39401000" Properties=species:S:1:pos:R:3:Z:I:1
P               0.06167580     -1.67644000     -0.03500150      15
I               1.70911000      1.07638000      0.07795090      53
I              -2.74326000      0.10768400     -0.04895690      53
H              -0.31169500      2.26160000      1.82056000       1
H              -0.65507000      1.90365000     -2.30052000       1
H              -0.45887600      1.19802000      3.10000000       1
I              -0.15593300     -1.50040000      3.17808000      53
I              -0.06619720     -1.60162000     -3.20246000      53
N              -0.61596100      2.18443000      2.81075000       7
H               0.60662900      3.17691000     -2.21162000       1
C              -0.23819700      2.78932000     -2.78553000       6
H              -1.63474000      2.39096000      2.86306000       1
H              -3.61758000     -1.28892000      1.91100000       1
H              -3.57471000     -1.37422000     -2.01153000       1
I               2.75219000     -3.40295000      0.04962100      53
H               3.30931000     -0.52862200      2.99317000       1
H               0.97201200      1.66539000     -4.08914000       1
I              -1.81277000     -4.29440000     -0.01303350      53
H              -1.00570000      3.55783000     -2.90178000       1
H               1.22228000      2.89117000      3.57180000       1
N               0.24835100      2.40147000     -4.13991000       7
C               0.16059700      3.12992000      3.66783000       6
I              -1.87319000      4.67576000     -0.01303350      53
H               3.56166000     -0.87901000     -3.56771000       1
H              -3.30771000     -2.85419000     -2.75999000       1
H              -0.52287300      2.02398000     -4.73195000       1
P               4.38340000      2.78216000     -0.03392740      15
H              -3.40203000     -2.51530000      3.03987000       1
N              -4.10943000     -1.92613000      2.57408000       7
N              -4.02471000     -2.13882000     -2.55891000       7
H               4.19931000     -2.56875000     -1.94102000       1
H               4.21732000     -2.52777000      1.98732000       1
H              -0.03538200      4.14845000      3.32508000       1
P              -4.56057000      2.78216000     -0.03392740      15
C               4.02570000     -1.13710000      3.54999000       6
H              -0.16572200      3.00537000      4.70282000       1
H               0.66399200      3.20839000     -4.65565000       1
H              -4.72665000     -2.52777000      1.98732000       1
H              -4.74466000     -2.56875000     -1.94102000       1
H               3.50322000     -1.83260000      4.20783000       1
H               5.32639000     -1.28892000      1.91100000       1
N               4.83454000     -1.92613000      2.57408000       7
H               0.02503940     -4.82171000      3.32508000       1
H               5.36926000     -1.37422000     -2.01153000       1
H              -4.24268000     -0.49981400      4.12367000       1
N               4.91926000     -2.13882000     -2.55891000       7
H              -3.83757000     -1.18208000     -4.42987000       1
C               4.31498000     -1.62777000     -3.82285000       6
I              -4.27712000      2.79298000      3.16520000      53
C              -4.91828000     -1.13710000      3.54999000       6
I               2.69177000      5.56721000      0.04962100      53
I               4.45086000      2.88244000     -3.19557000      53
I               6.20071000      0.10768400     -0.04895690      53
H              -0.94527900     -5.41234000     -2.90178000       1
C              -4.62899000     -1.62777000     -3.82285000       6
I              -4.49312000      2.88244000     -3.19557000      53
H               0.66705100     -5.79326000     -2.21162000       1
H               4.70129000     -0.49981400      4.12367000       1
I               4.66685000      2.79298000      3.16520000      53
H               3.85609000     -2.46667000     -4.35100000       1
H              -5.63467000     -0.52862200      2.99317000       1
H              -5.38231000     -0.87901000     -3.56771000       1
P              -0.00390617     -1.58414000      6.40814000      15
P              -0.03619940     -1.67989000     -6.42747000      15
I               1.91043000      0.94716500      6.32100000      53
C              -0.17777600     -6.18084000     -2.78553000       6
H               5.54194000     -2.51530000      3.03987000       1
I               2.44909000      0.33184000     -6.35974000      53
I              -1.99079000      0.89309200     -6.47695000      53
H               5.10640000     -1.18208000     -4.42987000       1
H               5.63626000     -2.85419000     -2.75999000       1
C               0.22101900     -5.84025000      3.66783000       6
H              -0.25127400     -6.70857000      1.82056000       1
I              -2.58997000      0.31919900      6.50983000      53
I              -6.19178000     -3.40295000      0.04962100      53
H              -5.44075000     -1.83260000      4.20783000       1
H              -5.08788000     -2.46667000     -4.35100000       1
H               1.28270000     -6.07900000      3.57180000       1
P               0.00125436      7.29372000     -0.03500150      15
I              -7.23486000      1.07638000      0.07795090      53
H              -1.57432000     -6.57920000      2.86306000       1
N              -0.55554000     -6.78574000      2.81075000       7
H               0.72441300     -5.76177000     -4.65565000       1
H              -0.59464900     -7.06652000     -2.30052000       1
H              -3.36813000      6.11597000     -2.75999000       1
H              -0.10530000     -5.96480000      4.70282000       1
P               4.44382000     -6.18800000     -0.03392740      15
P              -4.50015000     -6.18800000     -0.03392740      15
I               2.53845000     -3.53517000      6.33778000      53
N               0.30877200     -6.56870000     -4.13991000       7
I               1.88518000     -4.22271000     -6.30490000      53
I              -2.55840000     -3.59474000     -6.49373000      53
H               4.13889000      6.40142000     -1.94102000       1
I              -1.96564000     -4.09642000      6.45499000      53
H               4.15690000      6.44240000      1.98732000       1
H              -3.46245000      6.45486000      3.03987000       1
I              -0.12661900      7.36854000     -3.20246000      53
I               1.76953000     -7.89378000      0.07795090      53
I               1.82475000      4.74746000     -6.30490000      53
I              -0.21635400      7.46977000      3.17808000      53
I              -4.21670000     -6.17719000      3.16520000      53
I              -4.43270000     -6.08772000     -3.19557000      53
H               7.30923000      2.39096000      2.86306000       1
I               4.51128000     -6.08772000     -3.19557000      53
H              -4.80508000      6.40142000     -1.94102000       1
H              -4.78707000      6.44240000      1.98732000       1
P               4.41082000      2.84412000     -6.40659000      15
P               4.43262000      2.86201000      6.38725000      15
I               7.13120000     -4.29440000     -0.01303350      53
P              -4.51135000      2.86201000      6.38725000      15
I              -2.02606000      4.87375000      6.45499000      53
P              -4.53315000      2.84412000     -6.40659000      15
N              -4.08513000      6.83135000     -2.55891000       7
I              -6.25220000      5.56721000      0.04962100      53
H              -0.39845400     -7.77215000      3.10000000       1
I               4.72727000     -6.17719000      3.16520000      53
H              -0.46245200     -6.94619000     -4.73195000       1
H               1.03243000     -7.30477000     -4.08914000       1
I               7.07078000      4.67576000     -0.01303350      53
N              -4.16985000      7.04403000      2.57408000       7
H              -3.63513000      7.59594000     -2.01153000       1
H               3.79567000      6.50350000     -4.35100000       1
I               2.47803000      5.43500000      6.33778000      53
H               5.57584000      6.11597000     -2.75999000       1
H              -3.67800000      7.68125000      1.91100000       1
H              -0.61906200      2.07524000      8.46373000       1
N               4.85884000      6.83135000     -2.55891000       7
H               8.28890000      1.90365000     -2.30052000       1
I              -2.61882000      5.37542000     -6.49373000      53
N               4.77412000      7.04403000      2.57408000       7
H               3.44280000      7.13756000      4.20783000       1
H              -7.72169000      2.89117000      3.57180000       1
H               5.48152000      6.45486000      3.03987000       1
P              -8.88230000     -1.67644000     -0.03500150      15
H              -1.02602000      2.59565000     -8.60690000       1
H               0.63125000      3.35983000      8.38486000       1
N               8.32801000      2.18443000      2.81075000       7
H              -3.75074000     -1.21986000      8.15908000       1
I              -6.49488000      0.33184000     -6.35974000      53
I               6.35400000      0.31919900      6.50983000      53
H               8.63228000      2.26160000      1.82056000       1
H               8.48510000      1.19802000      3.10000000       1
H              -7.97196000      1.66539000     -4.08914000       1
P               9.00565000     -1.67644000     -0.03500150      15
H               7.93827000      3.55783000     -2.90178000       1
H              -8.33734000      3.17691000     -2.21162000       1
I              -2.68284000     -8.86248000     -0.04895690      53
C               4.25456000      7.34240000     -3.82285000       6
H               4.30943000     -1.53654000     -8.11191000       1
H               4.00637000     -2.40428000      8.08278000       1
H              -5.14831000      6.50350000     -4.35100000       1
C              -0.16016700      2.91414000      8.99187000       6
I               8.78804000     -1.50040000      3.17808000      53
H              -4.63454000     -1.53654000     -8.11191000       1
C               3.96528000      7.83307000      3.54999000       6
H               5.30884000      7.59594000     -2.01153000       1
I              -2.80368000      9.07785000     -0.04895690      53
I              -7.03355000      0.94716500      6.32100000      53
H               5.26597000      7.68125000      1.91100000       1
H               3.50124000      8.09116000     -3.56771000       1
C              -4.68941000      7.34240000     -3.82285000       6
H               3.24889000      8.44154000      2.99317000       1
H               0.17204900      3.92844000     -8.69106000       1
I               6.95318000      0.89309200     -6.47695000      53
C               8.70578000      2.78932000     -2.78553000       6
I               8.87778000     -1.60162000     -3.20246000      53
I              -6.40552000     -3.53517000      6.33778000      53
I              -9.01017000     -1.60162000     -3.20246000      53
H              -9.25567000      2.26160000      1.82056000       1
P              -0.09662080      7.29027000     -6.42747000      15
I               0.03612690     -1.54581000      9.61916000      53
H               5.19324000     -1.21986000      8.15908000       1
I              -9.09991000     -1.50040000      3.17808000      53
H              -3.89799000      7.78809000     -4.42987000       1
H              -4.93760000     -2.40428000      8.08278000       1
H              -3.44272000     -2.76287000      8.72559000       1
P              -0.06432760      7.38603000      6.40814000      15
I               6.38558000     -3.59474000     -6.49373000      53
I               0.19802700     -1.74893000     -9.64953000      53
N              -4.16638000     -2.02679000      8.67482000       7
C              -0.50354700      3.29116000     -9.26473000       6
H               8.42110000      2.02398000     -4.73195000       1
P              -4.45093000     -6.10815000      6.38725000      15
P               4.49304000     -6.10815000      6.38725000      15
N              -8.69562000      2.40147000     -4.13991000       7
P               4.47124000     -6.12604000     -6.40659000      15
P              -4.47273000     -6.12604000     -6.40659000      15
H              -3.24654000     -1.65074000     -9.24293000       1
C              -4.97870000      7.83307000      3.54999000       6
H              -5.50117000      7.13756000      4.20783000       1
H              -9.40285000      1.19802000      3.10000000       1
H              -0.91348900      3.66290000      9.24702000       1
C              -9.18217000      2.78932000     -2.78553000       6
H               1.01270000      1.91296000     -9.77485000       1
C              -8.78338000      3.12992000      3.66783000       6
H              -8.27998000      3.20839000     -4.65565000       1
H               0.23247000     -5.04172000     -8.69106000       1
H              -9.59904000      1.90365000     -2.30052000       1
H               7.99869000     -5.41234000     -2.90178000       1
N               4.77760000     -2.02679000      8.67482000       7
