200
cutoff_factor=1.20000000 nneightol=1.20000000 Lattice="28.48758000       0.00000000       0.00000000       0.00000000      28.32010000       0.00000000       0.00000000       0.00000000      28.87018000" Properties=species:S:1:pos:R:3:Z:I:1
P               0.62450800     -0.60362600     -0.01284780      15
I              -1.42085000      1.84568000     -0.53140600      53
I              -0.11361400     -0.51751600      3.14947000      53
I              -1.84549000     -2.71143000     -0.43801300      53
I               3.11515000      1.36543000      0.51202500      53
I               1.20055000     -0.78011600     -3.14056000      53
H               0.36255000      2.67005000      2.25227000       1
H              -2.81537000      0.48083500     -2.30139000       1
I               2.52779000     -3.20115000      0.52129200      53
H              -2.69481000      0.12943900      3.14929000       1
H               1.21076000      3.69737000     -2.24248000       1
C               0.79133100      3.12203000      3.14951000       6
N              -3.40738000      0.31289200     -3.14061000       7
H              -3.61087000     -1.90955000      2.25223000       1
H              -0.76483500     -4.05293000     -2.30068000       1
H               1.87837000      3.01484000      3.14935000       1
H              -4.14637000      0.44627700      2.31106000       1
H               0.89999400     -4.08320000      2.31128000       1
H              -3.17863000     -1.78399000     -3.14022000       1
H               0.36283300      2.67023000      4.04699000       1
N              -3.72704000     -0.00874287      3.14936000       7
H              -2.81543000      0.48053800     -3.97992000       1
H              -1.02177000      3.62382000     -3.14243000       1
H               4.26828000     -1.17260000     -2.24248000       1
H               3.74500000     -1.57907000      3.14971000       1
C              -3.99478000     -1.05848000     -3.14031000       6
H               1.50100000     -3.88760000     -3.13819000       1
H              -4.60645000     -1.17260000     -2.24248000       1
H               4.72836000      0.44627700      2.31106000       1
H              -4.14240000      1.04389000     -3.14070000       1
C              -4.04372000     -1.46177000      3.14956000       6
C               0.95879000      4.26739000     -3.13970000       6
H              -0.54671100     -4.41320000      3.14945000       1
N              -0.50437400      4.51828000     -3.14100000       7
P              -3.89271000      3.93806000      0.05114900      15
N               0.48561700     -4.54400000      3.14940000       7
N               0.46045800      4.57300000      3.14940000       7
N              -0.47921500     -4.59871000     -3.14100000       7
H               0.87483600      5.03380000      2.31128000       1
H               1.21266000      3.69914000     -4.03750000       1
H              -0.78999400      5.06406000     -2.30068000       1
H              -0.57186900      4.70380000      3.14945000       1
H              -0.76320500     -4.05145000     -3.98090000       1
H              -3.61067000     -1.90935000      4.04689000       1
H              -4.14627000      0.44645700      3.98762000       1
H               4.73233000      1.04389000     -3.14070000       1
H               0.90007000     -4.08310000      3.98744000       1
C               0.98394900     -4.84960000     -3.13970000       6
C               4.87995000     -1.05848000     -3.14031000       6
I              -5.75958000      1.36543000      0.51202500      53
C               4.83101000     -1.46177000      3.14956000       6
I              -3.13536000      3.98301000      3.14952000      53
H               4.26820000     -1.17293000     -4.03805000       1
H               1.23592000     -5.41963000     -2.24248000       1
N               5.14769000     -0.00874287      3.14936000       7
H               5.26386000     -1.90955000      2.25223000       1
H               4.72846000      0.44645700      3.98762000       1
I              -1.42061000      1.84633000     -5.74940000      53
H              -5.12973000     -1.57907000      3.14971000       1
H              -4.60653000     -1.17293000     -4.03805000       1
H               1.47584000      5.22939000     -3.13819000       1
N               5.46735000      0.31289200     -3.14061000       7
P               0.62458400     -0.60314700     -6.26827000      15
P               4.98202000      3.93806000      0.05114900      15
P               0.62458100     -0.60365200      6.31175000      15
H              -0.99661400     -5.49318000     -3.14243000       1
I               2.50263000      5.91584000      0.52129200      53
P              -3.86755000     -5.17894000      0.05114900      15
H               0.87491200      5.03390000      3.98744000       1
H              -0.78836400      5.06554000     -3.98090000       1
H               6.05936000      0.48083500     -2.30139000       1
I              -4.36651000      3.82286000     -3.14054000      53
I              -1.87065000      6.40557000     -0.43801300      53
I               4.50822000      3.82286000     -3.14054000      53
I              -1.84568000     -2.71068000     -5.84313000      53
I               3.11529000      1.36528000      5.78687000      53
H               5.69610000     -1.78399000     -3.14022000       1
I              -3.11021000     -5.13399000      3.14952000      53
C               0.81648900     -5.99496000      3.14951000       6
H               0.38770900     -6.44695000      2.25227000       1
H               1.23782000     -5.41786000     -4.03750000       1
H               5.26406000     -1.90935000      4.04689000       1
H               6.17992000      0.12943900      3.14929000       1
I               2.52768000     -3.20127000      5.77758000      53
H               1.90352000     -6.10216000      3.14935000       1
I              -6.34694000     -3.20115000      0.52129200      53
P               5.00718000     -5.17894000      0.05114900      15
I              -1.42062000      1.84583000      6.83061000      53
H               6.05930000      0.48053800     -3.97992000       1
I              -1.39569000     -7.27132000     -0.53140600      53
I              -1.84568000     -2.71118000      6.73688000      53
I              -4.34136000     -5.29414000     -3.14054000      53
I               7.02924000     -2.71143000     -0.43801300      53
I               3.11530000      1.36579000     -6.79314000      53
H               0.38799200     -6.44677000      4.04699000       1
I               4.53337000     -5.29414000     -3.14054000      53
I               5.73937000      3.98301000      3.14952000      53
I               7.45388000      1.84568000     -0.53140600      53
I               2.52768000     -3.20076000     -6.80244000      53
H              -6.99636000      3.01484000      3.14935000       1
P              -8.25022000     -0.60362600     -0.01284780      15
I              -5.75944000      1.36528000      5.78687000      53
I              -7.67418000     -0.78011600     -3.14056000      53
I               5.76452000     -5.13399000      3.14952000      53
P              -3.89280000      3.93806000      6.24784000      15
I               3.14031000     -7.75157000      0.51202500      53
H              -3.63603000      7.20745000      2.25223000       1
P              -3.89280000      3.93857000     -6.33217000      15
P               0.59935000      8.51337000     -0.01284780      15
H              -3.20379000      7.33300000     -3.14022000       1
I               2.50252000      5.91573000      5.77758000      53
I              -6.37210000      5.91584000      0.52129200      53
H              -7.66397000      3.69737000     -2.24248000       1
I              -1.87084000      6.40632000     -5.84313000      53
H              -7.37373000     -3.88760000     -3.13819000       1
P               4.98193000      3.93806000      6.24784000      15
H               0.36283600      2.67073000     -8.53302000       1
P               4.98193000      3.93857000     -6.33217000      15
H               3.71984000      7.53793000      3.14971000       1
I               1.17540000      8.33688000     -3.14056000      53
P              -3.86764000     -5.17894000      6.24784000      15
I              -5.75944000      1.36579000     -6.79314000      53
H              -3.63582000      7.20765000      4.04689000       1
P              -3.86764000     -5.17843000     -6.33217000      15
H              -2.81544000      0.48003300      8.60009000       1
I              -0.13877300      8.59948000      3.14947000      53
I              -6.34705000     -3.20127000      5.77758000      53
H               5.23870000      7.20745000      2.25223000       1
H              -8.51218000      2.67005000      2.25227000       1
H               7.85296000      3.62382000     -3.14243000       1
C              -8.08340000      3.12203000      3.14951000       6
C              -4.06888000      7.65523000      3.14956000       6
H              -7.97474000     -4.08320000      2.31128000       1
H               4.24312000      7.94439000     -2.24248000       1
I               8.76112000     -0.51751600      3.14947000      53
H               8.10990000     -4.05293000     -2.30068000       1
I               2.50252000      5.91623000     -6.80244000      53
H              -2.79021000     -8.63616000     -2.30139000       1
I              -1.39545000     -7.27066000     -5.74940000      53
H               1.21266000      3.69863000      8.54251000       1
H              -7.66207000      3.69914000     -4.03750000       1
I              -0.11361100     -0.51701100     -9.43054000      53
H              -3.61066000     -1.90884000     -8.53313000       1
H              -4.63161000      7.94439000     -2.24248000       1
I              -1.87084000      6.40582000      6.73688000      53
I               7.00408000      6.40557000     -0.43801300      53
P               9.49924000     -0.60362600     -0.01284780      15
C              -7.91594000      4.26739000     -3.13970000       6
I               7.02905000     -2.71068000     -5.84313000      53
P               5.00709000     -5.17894000      6.24784000      15
H              -0.76320800     -4.05196000      8.59911000       1
C              -4.01994000      8.05852000     -3.14031000       6
I              -8.98834000     -0.51751600      3.14947000      53
I               1.20055000     -0.78062100      9.43945000      53
H              -4.14627000      0.44696200     -8.59239000       1
H               0.90007300     -4.08259000     -8.59258000       1
C               4.80585000      7.65523000      3.14956000       6
H              -7.39889000      5.22939000     -3.13819000       1
P               5.00709000     -5.17843000     -6.33217000      15
H              -4.11725000     -8.07310000     -3.14070000       1
I               7.45412000      1.84633000     -5.74940000      53
H               4.26820000     -1.17344000      8.54197000       1
H              -7.63881000     -5.41963000     -2.24248000       1
I              -5.73442000     -7.75157000      0.51202500      53
H              -5.15489000      7.53793000      3.14971000       1
H              -7.99989000      5.03380000      2.31128000       1
P               0.64966600     -9.72062000     -0.01284780      15
H              -4.60653000     -1.17344000      8.54197000       1
C              -7.89078000     -4.84960000     -3.13970000       6
H              -6.97121000     -6.10216000      3.14935000       1
H               5.23891000      7.20765000      4.04689000       1
H               5.67094000      7.33300000     -3.14022000       1
H              -8.51190000      2.67023000      4.04699000       1
H              -7.97466000     -4.08310000      3.98744000       1
H              -2.69481000      0.12994400     -9.43073000       1
H               8.08474000      5.06406000     -2.30068000       1
H               4.72846000      0.44696200     -8.59239000       1
I              -6.34705000     -3.20076000     -6.80244000      53
H               4.24304000      7.94406000     -4.03805000       1
H              -4.12121000     -8.67072000      2.31106000       1
H               9.23728000      2.67005000      2.25227000       1
H               4.75749000     -8.07310000     -3.14070000       1
H              -2.66965000     -8.98756000      3.14929000       1
H               8.11152000     -4.05145000     -3.98090000       1
H              -2.79028000     -8.63646000     -3.97992000       1
C               4.85479000      8.05852000     -3.14031000       6
H               8.32802000     -4.41320000      3.14945000       1
N              -3.38222000     -8.80411000     -3.14061000       7
C               0.79133400      3.12254000     -9.43050000       6
H               0.87491400      5.03441000     -8.59258000       1
H              -0.78836700      5.06504000      8.59911000       1
N               8.37036000      4.51828000     -3.14100000       7
N              -3.40738000      0.31238700      9.43941000       7
H              -4.63169000      7.94406000     -4.03805000       1
N              -8.38911000     -4.54400000      3.14940000       7
H               8.30286000      4.70380000      3.14945000       1
I              -1.39546000     -7.27117000      6.83061000      53
N               8.39551000     -4.59871000     -3.14100000       7
H               1.87837000      3.01534000     -9.43066000       1
N              -8.41427000      4.57300000      3.14940000       7
