200
cutoff_factor=1.20000000 nneightol=1.20000000 Lattice="28.03571000       0.00000000       0.00000000       0.00000000      29.44918000       0.00000000       0.00000000       0.00000000      29.37227000" Properties=species:S:1:pos:R:3:Z:I:1
I              -0.06179590      1.01759000     -0.27288200      53
P               1.77281000     -1.79034000      0.07723690      15
H               1.08182000      2.18991000      1.77435000       1
H               1.34770000      1.57722000     -2.36328000       1
H              -1.98894000     -1.86193000      2.06683000       1
H              -2.33577000     -0.35231700      2.80543000       1
I              -0.87574300     -3.54183000      0.47568000      53
H              -1.60282000     -2.32115000     -2.36658000       1
H               2.17316000      1.48224000      2.80543000       1
I               1.86435000     -1.11071000      3.19769000      53
N               1.78469000      2.40109000      2.51097000       7
N              -2.72424000     -1.27116000      2.51097000       7
H              -3.16122000     -0.44729100     -2.36329000       1
H              -1.91787000     -0.18955600     -3.49357000       1
H              -3.42712000     -1.05998000      1.77435000       1
P              -2.73612000      2.92026000      0.07723690      15
I               1.58681000     -2.06969000     -3.05848000      53
N               1.77562000      1.90950000     -3.25362000       7
N              -2.73331000     -0.77957500     -3.25363000       7
H               2.51999000      2.99186000      2.06683000       1
I               4.44713000      0.11233900     -0.27288400      53
H               1.07673000      1.76012000     -4.01437000       1
C              -2.34286000     -2.21349000     -3.16244000       6
H               2.59105000      1.31947000     -3.49355000       1
I              -4.57072000      0.11233900     -0.27288400      53
I              -2.64458000      2.24063000      3.19769000      53
H               0.36761000      2.46378000      4.06956000       1
C               1.15939000      3.10030000      3.66887000       6
H               1.27225000      3.92847000     -2.93557000       1
C               2.16607000      3.34342000     -3.16244000       6
H               2.90610000      3.45108000     -2.36658000       1
H              -3.23668000     -2.79854000     -2.93555000       1
H              -1.91929000     -2.51780000     -4.12093000       1
H               0.74743100      4.05006000      3.32008000       1
I              -2.92212000      3.19961000     -3.05848000      53
H              -3.43220000     -0.63019900     -4.01437000       1
C              -3.34954000     -1.97037000      3.66887000       6
H              -2.58121000     -2.13940000      4.42460000       1
I              -0.87574300      5.49784000      0.47568000      53
I               3.63319000     -4.36791000      0.47567900      53
H              -3.76149000     -2.92013000      3.32009000       1
H               1.92771000      3.26933000      4.42460000       1
I              -0.42158800      0.78021700     -5.79216000      53
I               3.63319000      4.67175000      0.47567900      53
H              -4.14131000     -1.33385000      4.06956000       1
H               5.59074000     -1.05998000      1.77435000       1
H               1.27225000     -5.11119000     -2.93557000       1
H               0.74743200     -4.98961000      3.32008000       1
H               2.58966000      3.64771000     -4.12093000       1
H               5.85664000     -0.44729100     -2.36329000       1
H               4.87654000     -1.33385000      4.06956000       1
P              -2.73612000     -6.11940000      0.07723690      15
P               1.62098000     -1.73409000     -6.28015000      15
H               2.90610000     -5.58859000     -2.36658000       1
P               1.68066000     -1.73409000      6.33794000      15
C               2.16607000     -5.69625000     -3.16244000       6
H               5.25636000     -2.92013000      3.32009000       1
H               2.51999000     -6.04781000      2.06683000       1
I              -0.36190500      0.78021600      6.82593000      53
N               6.29362000     -1.27116000      2.51097000       7
H               5.58566000     -0.63019900     -4.01437000       1
P               6.28174000      2.92026000      0.07723690      15
I              -5.38467000     -4.36791000      0.47567900      53
C               5.66832000     -1.97037000      3.66887000       6
H               5.78118000     -2.79854000     -2.93555000       1
C               1.15939000     -5.93937000      3.66887000       6
I               4.08734000      0.34970600     -5.79217000      53
N               6.28455000     -0.77957500     -3.25363000       7
I              -0.77183400     -3.73859000      6.03575000      53
I              -5.38467000      4.67175000      0.47567900      53
H               1.08182000     -6.84976000      1.77435000       1
I              -2.92212000     -5.84005000     -3.05848000      53
H               6.68208000     -0.35231700      2.80543000       1
H               2.58966000     -5.39195000     -4.12093000       1
H              -1.60282000      6.71852000     -2.36658000       1
N               1.78469000     -6.63858000      2.51097000       7
H              -6.11176000      3.45108000     -2.36658000       1
H              -6.42680000      1.31947000     -3.49355000       1
H              -6.49787000      2.99186000      2.06683000       1
P               1.77281000      7.24933000      0.07723690      15
P              -7.24504000     -1.79034000      0.07723690      15
I               6.37328000      2.24063000      3.19769000      53
P              -2.88795000      2.86401000     -6.28015000      15
P              -2.82827000      2.86401000      6.33794000      15
H               1.92771000     -5.77033000      4.42460000       1
I               6.09574000      3.19961000     -3.05848000      53
H              -6.84470000      1.48224000      2.80543000       1
H               7.02891000     -1.86193000      2.06683000       1
I              -4.93052000      0.34970600     -5.79217000      53
I              -0.83151700     -3.73859000     -6.58234000      53
H              -3.23668000      6.24112000     -2.93555000       1
C               6.67500000     -2.21349000     -3.16244000       6
H              -1.98894000      7.17773000      2.06683000       1
H               0.36761100     -6.57589000      4.06956000       1
I               1.58681000      6.96998000     -3.05848000      53
C              -2.34286000      6.82617000     -3.16244000       6
H              -3.76150000      6.11953000      3.32009000       1
I              -7.15351000     -1.11071000      3.19769000      53
H               7.09999000     -0.18955600     -3.49357000       1
H               1.34770000     -7.46244000     -2.36328000       1
H              -1.91929000      6.52186000     -4.12093000       1
I              -2.64458000     -6.79903000      3.19769000      53
I               4.14702000      0.34970500      6.82593000      53
N              -7.23317000      2.40109000      2.51097000       7
I              -0.06179530     -8.02208000     -0.27288200      53
N               1.77562000     -7.13017000     -3.25362000       7
I              -0.77183500      5.30108000      6.03575000      53
H               6.43665000     -2.13940000      4.42460000       1
H               7.41504000     -2.32115000     -2.36658000       1
N              -7.24224000      1.90950000     -3.25362000       7
H              -7.67016000      1.57722000     -2.36328000       1
I               3.73709000     -4.17116000      6.03575000      53
C              -6.85179000      3.34342000     -3.16244000       6
I              -7.43105000     -2.06969000     -3.05848000      53
H               2.17316000     -7.55742000      2.80543000       1
H               1.07673000     -7.27955000     -4.01437000       1
I              -4.87083000      0.34970500      6.82593000      53
H              -7.93604000      2.18991000      1.77435000       1
H              -6.42820000      3.64771000     -4.12093000       1
I              -0.83151800      5.30108000     -6.58234000      53
H               7.09857000     -2.51780000     -4.12093000       1
H              -2.58121000      6.90026000      4.42460000       1
N              -2.72424000      7.76850000      2.51097000       7
I               3.73709000      4.86851000      6.03575000      53
H              -6.11176000     -5.58859000     -2.36658000       1
I               3.67741000     -4.17115000     -6.58234000      53
C              -3.34954000      7.06929000      3.66887000       6
H               5.25636000      6.11953000      3.32009000       1
I               1.86435000      7.92895000      3.19769000      53
P               6.28174000     -6.11940000      0.07723690      15
H               1.13641000      1.76012000      8.60372000       1
H               2.59105000     -7.72019000     -3.49355000       1
H              -3.42712000      7.97968000      1.77435000       1
H              -2.64089000     -2.13940000     -8.19349000       1
I               8.14211000     -3.54183000      0.47568000      53
H               0.30792700      2.46378000     -8.54853000       1
H              -7.09015000      3.26933000      4.42460000       1
I               3.67741000      4.86851000     -6.58234000      53
I               6.09574000     -5.84005000     -3.05848000      53
H               5.78118000      6.24112000     -2.93555000       1
H               1.86803000      3.26933000     -8.19349000       1
I               8.95606000      1.01759000     -0.27288200      53
I              -5.28076000     -4.17116000      6.03575000      53
H              -1.85960000     -2.51780000      8.49716000       1
H              -7.94113000      1.76012000     -4.01437000       1
H              -6.49787000     -6.04781000      2.06683000       1
I              -9.07965000      1.01759000     -0.27288200      53
H              -7.74561000      3.92847000     -2.93557000       1
C              -7.85847000      3.10030000      3.66887000       6
P               6.12991000      2.86401000     -6.28015000      15
H              -3.37252000     -0.63020000      8.60372000       1
P              -2.88795000     -6.17565000     -6.28015000      15
N              -2.73331000      8.26009000     -3.25363000       7
P              -2.82827000     -6.17565000      6.33794000      15
P               6.18959000      2.86401000      6.33794000      15
H              -1.85819000     -0.18955600      9.12452000       1
H              -6.42820000     -5.39195000     -4.12093000       1
I              -5.28076000      4.86851000      6.03575000      53
H              -2.33577000      8.68735000      2.80543000       1
I              -5.34045000     -4.17115000     -6.58234000      53
C              -6.85179000     -5.69625000     -3.16244000       6
H              -3.16122000      8.59237000     -2.36329000       1
C               1.09971000      3.10030000     -8.94922000       6
H               2.65074000      1.31947000      9.12454000       1
H              -4.20100000     -1.33385000     -8.54853000       1
H               2.64934000      3.64771000      8.49716000       1
H              -4.14131000      7.70582000      4.06956000       1
I               1.80467000     -1.11071000     -9.42041000      53
H              -1.91787000      8.85011000     -3.49357000       1
N               1.83530000      1.90950000      9.36447000       7
H              -7.74561000     -5.11119000     -2.93557000       1
P               1.62098000      7.30557000     -6.28015000      15
N              -2.67362000     -0.77957500      9.36447000       7
I              -5.34045000      4.86851000     -6.58234000      53
C               5.66832000      7.06929000      3.66887000       6
C              -3.40922000     -1.97037000     -8.94922000       6
H              -8.27043000      4.05006000      3.32008000       1
P               1.68066000      7.30557000      6.33794000      15
I               8.14211000      5.49784000      0.47568000      53
P              -7.33720000     -1.73409000      6.33794000      15
I               6.37328000     -6.79903000      3.19769000      53
P              -7.39688000     -1.73409000     -6.28015000      15
H              -8.65025000      2.46378000      4.06956000       1
H               4.81686000     -1.33385000     -8.54853000       1
H               5.59074000      7.97968000      1.77435000       1
I               1.64649000     -2.06969000      9.55961000      53
H              -3.43220000      8.40946000     -4.01437000       1
C              -2.28318000     -2.21349000      9.45565000       6
I               4.44713000     -8.92733000     -0.27288400      53
H               4.87654000      7.70582000      4.06956000       1
I              -4.57072000     -8.92733000     -0.27288400      53
H              -1.91787000     -9.22922000     -3.49357000       1
I              -2.70426000      2.24063000     -9.42041000      53
C               6.67500000      6.82617000     -3.16244000       6
I              -0.06179640     10.05720000     -0.27288200      53
H              -2.33577000     -9.39198000      2.80543000       1
I              -0.42158700     -8.25945000     -5.79216000      53
H              -2.39546000     -0.35231700     -9.81266000       1
N              -7.23317000     -6.63858000      2.51097000       7
H               2.11347000      1.48224000     -9.81266000       1
