200
cutoff_factor=1.20000000 nneightol=1.20000000 Lattice="28.81218000       0.00000000       0.00000000       0.00000000      28.46341000       0.00000000       0.00000000       0.00000000      28.60939000" Properties=species:S:1:pos:R:3:Z:I:1
I              -1.53466000      0.04085150     -0.46539700      53
P               0.78250200      2.21204000     -0.55036300      15
H              -0.97854800     -0.39790600      2.75142000       1
I               2.42128000      0.56966100      1.67415000      53
H               2.43225000     -1.79157000      0.64707100       1
H               1.79078000     -2.35176000     -1.62988000       1
H               1.45594000     -3.16183000      0.64089600       1
N               2.38407000     -2.78855000      0.34714100       7
I               2.36622000      0.57508300     -2.84326000      53
C              -0.95795000      0.04638570      3.74919000       6
H              -0.18249600      0.81350700      3.81009000       1
H              -0.37070600      0.29225200     -3.90107000       1
C               2.57318000     -2.92428000     -1.12691000       6
P              -2.78163000     -2.90492000     -0.57199600      15
I              -0.75142000     -3.89473000      1.71507000      53
H              -1.39176000     -1.18284000     -3.93018000       1
I              -0.56677900      3.99894000      1.74351000      53
H              -1.93340000      0.46888200      4.00048000       1
C              -1.27157000     -0.16732700     -4.31080000       6
H              -4.49870000      0.40472600     -0.43492700       1
H               3.55848000     -2.53223000     -1.38489000       1
H              -2.14960000      0.43565300     -4.06853000       1
H               3.11461000     -3.31193000      0.85949700       1
H              -3.76007000      2.68214000     -0.78959800       1
H               0.28614800     -1.46665000      4.55131000       1
I              -0.71357500     -3.81954000     -2.82475000      53
I              -0.69464100      3.77745000     -2.89881000      53
H               4.74883000      1.03939000     -0.16509600       1
N              -0.63962800     -1.02744000      4.73887000       7
H               2.50049000     -3.98178000     -1.38774000       1
H              -4.47320000      2.49092000      0.73624200       1
H              -1.35630000     -1.77222000      4.72595000       1
N              -4.64448000      2.50431000     -0.29407100       7
C              -5.21218000      1.18745000     -0.69886300       6
I               3.23456000      4.41406000     -0.67877400      53
H               1.68421000      4.51955000      2.82948000       1
I              -4.95608000     -2.17471000      1.70944000      53
H              -0.61129200     -0.65476500      5.70966000       1
H              -5.38527000      1.19996000     -1.77643000       1
C               5.68921000      1.18745000     -0.69886300       6
N              -1.13778000     -0.23120200     -5.79629000       7
H               5.51612000      1.19996000     -1.77643000       1
I               2.52248000     -2.84596000      4.55607000      53
H               2.24215000      3.39752000     -4.32191000       1
I              -4.81838000     -1.97835000     -2.86440000      53
I              -4.55051000      2.19729000      3.24784000      53
P               4.51464000     -0.32641200      4.00713000      15
H              -0.32272400     -0.78879700     -6.08788000       1
H              -6.15256000      1.03939000     -0.16509600       1
H               3.36148000      4.37131000      2.95997000       1
H              -5.34058000      3.25230000     -0.49613400       1
H              -1.05590000      0.72942000     -6.19700000       1
H               2.98716000      4.51498000     -3.33819000       1
H               6.40269000      0.40472600     -0.43492700       1
N               2.54642000      4.92891000      3.25157000       7
H               5.56081000      3.25230000     -0.49613400       1
I               5.94530000     -2.17471000      1.70944000      53
H              -2.00000000     -0.64055700     -6.21838000       1
H              -1.11824000      6.34807000     -1.38774000       1
N               2.95882000      4.14230000     -4.30899000       7
N               6.25691000      2.50431000     -0.29407100       7
P               4.42889000     -0.41370200     -5.08001000      15
P              -2.78829000      4.74641000      3.96785000      15
H               2.29244000      3.97727000      5.11768000       1
P               0.83044300     -5.58345000      3.96785000      15
H               6.42819000      2.49092000      0.73624200       1
I              -4.78046000      2.32378000     -4.49179000      53
H               3.88460000      3.70310000     -4.49655000       1
I               6.08301000     -1.97835000     -2.86440000      53
I               2.97063000      1.34057000      6.22311000      53
H              -4.65435000     -4.44032000      2.85086000       1
I               2.66667000     -2.96282000     -5.80002000      53
I              -1.13417000      3.18176000      6.18345000      53
H               2.62831000      5.88953000      2.85086000       1
H              -0.50411900      7.01792000      0.85949700       1
I              -4.04809000     -5.91580000     -0.67877400      53
I               3.05195000     -6.33091000      1.74351000      53
C               2.41263000      4.99278000      4.73705000       6
H              -1.72184000     -7.07755000     -0.49613400       1
I               6.35087000      2.19729000      3.24784000      53
P               0.83043400     -5.48652000     -5.04073000      15
H              -2.16279000      7.16802000      0.64089600       1
P              -2.78830000      4.84333000     -5.04073000      15
P              -6.38675000     -0.32641200      4.00713000      15
C              -1.04555000      7.40557000     -1.12691000       6
I              -4.29309000     -1.39229000      6.14904000      53
H               1.53460000      5.59576000      4.97933000       1
N              -1.23466000      7.54131000      0.34714100       7
H               7.14132000      2.68214000     -0.78959800       1
H              -0.14133700     -7.64771000     -0.78959800       1
H              -3.92118000     -5.95854000      2.95997000       1
I               2.92409000     -6.55240000     -2.89881000      53
H               1.66505000      5.63862000     -5.04738000       1
I              -1.23223000     -4.59466000      6.20460000      53
H              -3.86670000     -4.34660000     -5.23777000       1
N              -4.73624000     -5.40095000      3.25157000       7
H              -7.34291000     -2.53223000     -1.38489000       1
C               2.64050000      5.21613000     -5.29867000       6
N              -1.02574000     -7.82555000     -0.29407100       7
H              -0.85446900     -7.83893000      0.73624200       1
H              -0.06025760      7.79763000     -1.38489000       1
I               6.12093000      2.32378000     -4.49179000      53
H              -4.29550000     -5.81487000     -3.33819000       1
I              -4.37015000      6.43512000      1.71507000      53
I               2.84703000      1.27501000     -7.33278000      53
I              -1.35763000      2.99503000     -7.33842000      53
H              -3.96916000     -4.87749000      5.14679000       1
H               6.24704000     -4.44032000      2.85086000       1
H               3.31350000      5.45236000      5.14679000       1
P              -6.47249000     -0.41370200     -5.08001000      15
I              -4.33231000      6.51031000     -2.82475000      53
H               2.61990000      4.77184000     -6.29644000       1
H              -1.82795000      7.97810000     -1.62988000       1
H               5.30294000     -5.81030000      2.82948000       1
I              -0.36389000     -0.75568800      8.36909000      53
H               1.91766000     -3.96979000      7.27143000       1
H              -7.78677000     -3.31193000      0.85949700       1
I              -4.25098000     -1.16117000     -7.30435000      53
H              -5.59845000     -5.81030000      2.82948000       1
H               5.15334000     -4.73409000      4.97933000       1
C              -4.87002000     -5.33707000      4.73705000       6
P               8.11976000     -2.90492000     -0.57199600      15
H              -1.18649000      8.53828000      0.64707100       1
I               2.32657000      8.15514000      1.70944000      53
H               3.41596000      5.98325000     -5.23777000       1
I              -8.48011000      0.56966100      1.67415000      53
H              -8.46914000     -1.79157000      0.64707100       1
H               5.28378000     -4.69123000     -5.04738000       1
N              -4.32383000     -6.18755000     -4.30899000       7
H              -3.39805000     -6.62676000     -4.49655000       1
P               4.50103000      7.42494000     -0.57199600      15
C              -4.64215000     -5.11372000     -5.29867000       6
I              -1.26293000     -4.59045000     -7.37371000      53
I              -0.93178100     -8.13257000      3.24784000      53
P               0.90257800      2.25519000      8.47586000      15
N               6.16515000     -5.40095000      3.25157000       7
I              -1.09625000      7.48389000      4.55607000      53
I              -7.66683000      4.41406000     -0.67877400      53
H              -3.65871000      2.62788000      7.66297000       1
H              -5.61761000     -4.69123000     -5.04738000       1
C              -8.32821000     -2.92428000     -1.12691000       6
H              -5.74805000     -4.73409000      4.97933000       1
N              -8.51731000     -2.78855000      0.34714100       7
H               1.96236000     -1.91744000      8.55173000       1
I              -8.53517000      0.57508300     -2.84326000      53
H              -4.71669000      1.17833000      7.66012000       1
I               6.85330000     -5.91580000     -0.67877400      53
H              -7.01679000      3.70310000     -4.49655000       1
I               6.60830000     -1.39229000      6.14904000      53
H               2.74398000     -2.66919000     -8.31162000       1
I               2.46428000      8.35150000     -2.86440000      53
H              -7.53991000      4.37131000      2.95997000       1
P               4.40124000     -8.11781000     -0.55036300      15
I              -1.16172000     -8.00607000     -4.49179000      53
C              -1.59345000     -9.14241000     -0.69886300       6
H               3.54287000     -2.48760000      8.25826000       1
I               6.53123000      6.43512000      1.71507000      53
C               6.03137000     -5.33707000      4.73705000       6
I               9.36673000      0.04085150     -0.46539700      53
H              -4.18832000      1.85781000     -8.18836000       1
H              -8.40090000     -3.98178000     -1.38774000       1
H               6.60589000     -5.81487000     -3.33819000       1
I              -0.95206300      7.36703000     -5.80002000      53
P              -2.81595000     -2.95770000      8.49750000      15
C              -4.64400000      2.23583000      7.92095000       6
H              -1.76654000     -9.12990000     -1.77643000       1
C               2.09076000     -3.98230000      8.34900000       6
N               2.65846000     -2.66544000      8.75379000       7
H              -9.11060000     -2.35176000     -1.62988000       1
H              -4.99021000     -6.35258000      5.11768000       1
H              -5.04051000     -6.93233000     -4.32191000       1
H              -4.66275000     -5.55802000     -6.29644000       1
H              -5.42640000      2.80835000      7.41798000       1
H              -2.53383000     -9.29046000     -0.16509600       1
H               5.47499000      2.80835000      7.41798000       1
H               6.98021000     -5.95854000      2.95997000       1
H               8.75179000      0.43565300     -4.06853000       1
C               6.25924000     -5.11372000     -5.29867000       6
I               6.56908000      6.51031000     -2.82475000      53
H              -7.91423000      4.51498000     -3.33819000       1
I              -4.85096000      5.73519000      6.20460000      53
I              -0.44964100     -0.74605400     -9.72663000      53
I               2.48456000     -7.14810000      6.18345000      53
H               7.03469000     -4.34660000     -5.23777000       1
H              -1.70107000      6.36007000      7.27143000       1
P              -6.40036000      7.42494000     -0.57199600      15
H               8.96798000      0.46888200      4.00048000       1
H               1.15037000     -4.13035000      8.88276000       1
H               1.87661000     -1.90781000     -9.54399000       1
H               6.18469000      1.17833000      7.66012000       1
H               6.93223000     -4.87749000      5.14679000       1
P               0.81682700      2.26483000     -9.61986000      15
N              -7.94256000      4.14230000     -4.30899000       7
I               6.65041000     -1.16117000     -7.30435000      53
I              -8.37891000     -2.84596000      4.55607000      53
H              -0.87996900     -9.92513000     -0.43492700       1
H              -9.44545000     -3.16183000      0.64089600       1
N               6.57756000     -6.18755000     -4.30899000       7
H               5.05439000      2.00791000     -8.40696000       1
N               2.57271000     -2.65580000     -9.34193000       7
