200
cutoff_factor=1.20000000 nneightol=1.20000000 Lattice="27.59536000       0.00000000       0.00000000       0.00000000      28.41103000       0.00000000       0.00000000       0.00000000      28.74344000" Properties=species:S:1:pos:R:3:Z:I:1
I              -0.31461000     -0.38182200     -0.24108600      53
P               2.24491000      1.15097000     -1.27327000      15
H              -0.91325000      2.85104000      0.91884400       1
H              -2.31136000      2.33667000     -0.07949360       1
H              -2.03048000     -1.44437000     -2.46502000       1
P              -2.11832000     -2.55707000      1.27629000      15
C              -1.98509000      2.97233000      0.74641700       6
H              -2.52020000      1.55509000      2.20284000       1
H               2.29296000     -2.78648000     -1.26219000       1
H              -2.77973000      0.09912480     -2.97953000       1
H               0.81423000     -0.08034180      3.99501000       1
H               2.74849000     -1.01678000      2.84529000       1
I               2.46489000      3.03971000      1.30704000      53
N              -2.71342000      2.55152000      1.98165000       7
H               0.85739700     -3.76127000     -1.71292000       1
I               4.11772000     -0.95897500      0.21146700      53
C              -2.56607000     -0.93070200     -3.26557000       6
I              -1.94879000     -0.59419500      3.86772000      53
H              -0.81673500     -0.39251500     -4.31261000       1
I               0.44400700      3.53418000     -2.66487000      53
I               1.99795000     -0.61534000     -4.00198000      53
C               1.94881000     -3.71651000     -1.71805000       6
H              -2.22408000      4.01854000      0.54271500       1
I               0.50357300     -4.18752000      2.13450000      53
I              -4.67996000     -0.95897500      0.21146700      53
N               1.72072000     -0.18292900      4.48879000       7
C               2.55231000     -1.26973000      3.88873000       6
H              -2.40070000      3.10634000      2.80104000       1
N              -1.69652000     -0.91352200     -4.47776000       7
H               1.99613000     -2.20686000      3.95634000       1
H              -3.74171000      2.66786000      1.86097000       1
H               2.23241000      0.72375100      4.49608000       1
H              -3.48897000     -1.46233000     -3.50801000       1
I              -2.44046000     -4.42087000     -1.30759000      53
H               2.10614000     -4.78533000      0.05706440       1
H               2.32959000     -3.80667000     -2.73736000       1
H              -1.41837000     -1.88400000     -4.74031000       1
I              -4.03942000      2.60319000     -2.58177000      53
N               2.47014000     -4.85850000     -0.91583600       7
H               1.49353000     -0.38816300      5.48498000       1
H              -2.21016000     -0.52888200     -5.29789000       1
H               3.48759000     -1.34025000      4.44886000       1
H               2.01493000      5.32848000     -1.31116000       1
I               4.75826000      2.60319000     -2.58177000      53
H               5.05597000      2.66786000      1.86097000       1
I              -0.57508300      3.37982000      4.94643000      53
H               3.50727000     -4.85698000     -0.89946800       1
H               1.59670000      3.29813000     -4.98281000       1
H               2.12868000     -5.75801000     -1.31116000       1
H               5.30871000     -1.46233000     -3.50801000       1
P              -2.25375000      4.82477000     -3.88142000      15
P               2.13003000      4.89801000      3.88798000      15
H               1.99238000      6.30116000      0.05706440       1
H               6.01795000      0.09912480     -2.97953000       1
N               2.35638000      6.22800000     -0.91583600       7
I              -3.90073000     -4.56425000      3.07984000      53
H              -6.04919000     -1.01678000      2.84529000       1
P              -6.55278000      1.15097000     -1.27327000      15
H               6.27749000      1.55509000      2.20284000       1
I              -0.35815800     -4.02038000     -5.52136000      53
N               6.08427000      2.55152000      1.98165000       7
H               6.48632000      2.33667000     -0.07949360       1
H               2.09930000      1.47943000     -6.51144000       1
H              -5.31009000     -1.34025000      4.44886000       1
H              -2.31333000     -4.21518000      5.16989000       1
P              -2.35692000      1.13848000      6.58636000      15
C               6.23161000     -0.93070200     -3.26557000       6
I               3.84430000      2.62951000      5.37403000      53
I              -6.33280000      3.03971000      1.30704000      53
H               3.39352000      6.22952000     -0.89946800       1
N               1.82389000      3.50336000     -5.97899000       7
H              -6.50473000     -2.78648000     -1.26219000       1
I               0.38981800      6.89897000      2.13450000      53
H              -5.29041000     -4.85698000     -0.89946800       1
I              -2.55422000      6.66562000     -1.30759000      53
P               6.67936000     -2.55707000      1.27629000      15
H               6.76721000     -1.44437000     -2.46502000       1
I               4.89695000     -4.56425000      3.07984000      53
H               3.59076000      2.34604000     -6.01892000       1
H              -2.11033000     -7.06796000      0.54271500       1
P               2.34695000     -2.50219000     -6.57980000      15
H              -0.91990500     -4.07881000      6.15517000       1
C              -6.24537000     -1.26973000      3.88873000       6
H               0.91739900      3.60595000     -6.47278000       1
C               6.81259000      2.97233000      0.74641700       6
C               2.65548000      2.41656000     -6.57905000       6
I              -1.84562000      3.09210000     -6.60006000      53
H               0.74364200      7.32522000     -1.71292000       1
H               6.39698000      3.10634000      2.80104000       1
P               2.24379000     -6.18848000      3.88798000      15
P              -2.13999000     -6.26172000     -3.88142000      15
H               6.57360000      4.01854000      0.54271500       1
N              -1.79969000     -4.59981000      5.99003000       7
I              -4.95338000      2.62951000      5.37403000      53
H               2.33558000      4.41004000     -5.97170000       1
C               1.83505000      7.36998000     -1.71805000       6
I               0.34083700     -0.15211100      7.80291000      53
I               6.35722000     -4.42087000     -1.30759000      53
I               6.84889000     -0.59419500      3.86772000      53
I              -6.79973000     -0.61534000     -4.00198000      53
C              -6.84888000     -3.71651000     -1.71805000       6
H              -6.46809000     -3.80667000     -2.73736000       1
H              -6.56527000      0.72375100      4.49608000       1
I               1.89478000     -4.30163000      6.46581000      53
I               0.55776200     -7.55231000     -2.66487000      53
N              -6.32755000     -4.85850000     -0.91583600       7
I               4.06123000     -4.77069000     -5.09376000      53
H               2.21583000      7.27983000     -2.73736000       1
H              -1.63529000      5.51620000      5.72747000       1
H              -1.52154000     -5.57030000      5.72747000       1
H              -6.80155000     -2.20686000      3.95634000       1
H              -6.69154000     -4.78533000      0.05706440       1
I              -4.01448000      6.52224000      3.07984000      53
H              -5.40416000      6.22952000     -0.89946800       1
H              -5.20692000      2.34604000     -6.01892000       1
H              -0.79949500     -8.23545000      0.91884400       1
I              -3.79756000     -0.87795700     -7.38794000      53
C              -1.87133000     -8.11416000      0.74641700       6
I               0.60674300     -0.50122900     -8.33328000      53
N              -7.07696000     -0.18292900      4.48879000       7
H               7.88443000      2.85104000      0.91884400       1
I              -4.73646000     -4.77069000     -5.09376000      53
N               7.10116000     -0.91352200     -4.47776000       7
H               6.58752000     -0.52888200     -5.29789000       1
I               8.48307000     -0.38182200     -0.24108600      53
I               2.57864000     -8.04678000      1.30704000      53
H               2.85166000      2.66951000     -7.62249000       1
I               4.78320000      6.52224000      3.07984000      53
H               2.17920000      8.30002000     -1.26219000       1
H              -6.78275000      5.32848000     -1.31116000       1
H              -2.28695000     -7.98015000      2.80104000       1
H               2.11266000      3.59354000      7.73043000       1
H              -2.88290000     -3.58717000      7.48825000       1
H              -6.66900000     -5.75801000     -1.31116000       1
P              -2.23207000      8.52942000      1.27629000      15
H              -7.98345000     -0.08034180      3.99501000       1
H              -2.42708000      6.87132000      5.16989000       1
H              -7.94028000     -3.76127000     -1.71292000       1
C              -2.66924000     -4.61700000      7.20221000       6
I               5.00012000     -0.87795700     -7.38794000      53
H               7.37931000     -1.88400000     -4.74031000       1
I              -4.14259000     -1.08311000      7.88602000      53
I              -0.47191400      7.06611000     -5.52136000      53
N              -6.44130000      6.22800000     -0.91583600       7
P               6.54393000      4.82477000     -3.88142000      15
H              -2.19761000     -8.74983000     -0.07949360       1
I               3.94747000      6.31580000     -5.09376000      53
N              -1.91344000      6.48668000      5.99003000       7
H              -2.18378000     -4.29386000     -7.66675000       1
H               7.98095000     -0.39251500     -4.31261000       1
I              -9.11229000     -0.38182200     -0.24108600      53
N              -2.59966000     -8.53498000      1.98165000       7
P              -6.66765000      4.89801000      3.88798000      15
H              -7.30415000     -0.38816300      5.48498000       1
I              -0.46132800     -7.70667000      4.94643000      53
I               4.65509000     -1.08311000      7.88602000      53
I               6.24346000      6.66562000     -1.30759000      53
H              -6.80530000      6.30116000      0.05706440       1
P               6.44076000      1.13848000      6.58636000      15
H               2.44934000     -6.67645000     -5.97170000       1
H               6.48435000     -4.21518000      5.16989000       1
C              -6.14220000      2.41656000     -6.57905000       6
H              -3.62795000     -8.41864000      1.86097000       1
H              -7.20098000      3.29813000     -4.98281000       1
H              -3.59214000     -5.14862000      6.95978000       1
H              -1.03366000      7.00769000      6.15517000       1
H               1.71046000     -7.78836000     -4.98281000       1
I              -4.85021000      6.31580000     -5.09376000      53
I              -8.35367000      3.53418000     -2.66487000      53
H              -6.69838000      1.47943000     -6.51144000       1
P              -2.01515000      1.12922000     -9.19149000      15
H               1.91176000      1.64219000      9.15662000       1
H               0.64047200      3.63893000      8.75486000       1
I              -8.29411000     -4.18752000      2.13450000      53
I               1.78103000      6.78486000      6.46581000      53
P              -6.45073000     -2.50219000     -6.57980000      15
C               1.73188000      3.68369000      8.74974000       6
I              -3.92566000     -8.48331000     -2.58177000      53
H              -2.13364000     -5.13066000      8.00276000       1
H               6.68735000     -7.06796000      0.54271500       1
P               2.14174000     -2.53532000      9.19451000      15
P              -6.55390000     -6.18848000      3.88798000      15
N              -6.97379000      3.50336000     -5.97899000       7
H              -6.46210000      4.41004000     -5.97170000       1
N               1.93765000     -7.58313000     -5.97899000       7
H              -3.70589000      5.93787000      6.95978000       1
H               1.88237000      8.87963000      3.95634000       1
P               6.65769000     -6.26172000     -3.88142000      15
H               1.03115000     -7.48054000     -6.47278000       1
I              -2.65739000      2.97933000      9.16019000      53
H              -5.94602000      2.66951000     -7.62249000       1
H               5.16973000     -8.41864000      1.86097000       1
I               6.95206000      3.09210000     -6.60006000      53
C              -2.78299000      6.46950000      7.20221000       6
H              -2.40644000     -9.53140000      2.20284000       1
H              -2.41703000      5.24139000     -8.26494000       1
N              -2.49649000     -4.84868000     -8.48613000       7
H               5.20554000     -5.14862000      6.95978000       1
I               4.87202000     -8.48331000     -2.58177000      53
N               2.25321000      2.54170000      9.55195000       7
