200
cutoff_factor=1.20000000 nneightol=1.20000000 Lattice="28.56501000       0.00000000       0.00000000       0.00000000      28.80201000       0.00000000       0.00000000       0.00000000      29.31221000" Properties=species:S:1:pos:R:3:Z:I:1
I               0.73112600      1.15710000     -0.64611900      53
P              -1.86406000     -0.71280300     -0.70238900      15
H               2.20940000     -0.00688481      1.03420000       1
I               0.07724720     -3.24201000     -0.78415800      53
I              -2.00886000     -0.87495700      2.51658000      53
H               1.43198000     -1.86541000      2.38847000       1
N               2.88292000     -0.53162800      1.63666000       7
H               1.62378000     -0.53737100     -2.90259000       1
H               3.33891000     -1.24044000      1.01952000       1
C               2.18723000     -1.18222000      2.78390000       6
H               1.71801000     -0.40435200      3.39070000       1
H              -0.81707100      3.52530000      1.52648000       1
H               3.61320000      0.12371200      1.94956000       1
I              -3.76071000      1.85013000     -0.44233700      53
C               2.12628000     -1.25051000     -3.55814000       6
I              -1.90092000     -0.64891100     -3.90283000      53
H               2.76123000     -1.92318000     -2.97944000       1
H              -2.95787000      2.70621000      2.25556000       1
P               2.62520000      3.74689000     -0.70179700      15
H               1.39325000     -1.82138000     -4.13275000       1
H              -1.83966000      2.64029000      3.53408000       1
H               2.92713000     -1.73035000      3.37176000       1
C              -1.46676000      4.15392000      2.13988000       6
H              -2.14493000     -4.17171000      1.50792000       1
N              -2.38646000      3.26996000      2.91215000       7
H              -0.72993300      2.86960000     -4.10910000       1
I               2.52132000      3.71198000      2.51934000      53
H              -2.72175000      3.40051000     -2.82775000       1
H              -0.95100300     -4.24230000      2.84619000       1
I              -4.46318000     -2.65086000     -0.72630600      53
I               4.49239000     -2.65086000     -0.72630600      53
H              -1.66257000     -4.19358000     -2.86493000       1
N               2.98727000     -0.49085200     -4.51334000       7
H              -2.06868000      4.81104000      1.50792000       1
H               3.69824000      0.07872550     -4.03127000       1
C              -1.54301000     -4.82883000      2.13988000       6
I               5.19485000      1.85013000     -0.44233700      53
H              -0.87475100      4.74044000      2.84619000       1
H               2.40364000      0.12686300     -5.11759000       1
H              -5.34237000      0.12371200      1.94956000       1
H              -0.89332300     -5.45745000      1.52648000       1
I               0.15349900      5.74074000     -0.78415800      53
H              -1.58632000      4.78917000     -2.86493000       1
H              -5.61666000     -1.24044000      1.01952000       1
C              -2.25636000      4.16314000     -3.45515000       6
P               2.54895000     -5.23585000     -0.70179700      15
N              -1.45445000      3.47974000     -4.51481000       7
I              -0.34627100      1.81061000      5.65186000      53
I               2.69440000      3.67083000     -3.90357000      53
H              -3.01124000      3.84132000      3.51612000       1
P              -2.08332000     -0.93643700      5.66515000      15
H              -2.07544000      2.90707000     -5.12861000       1
N              -6.07264000     -0.53162800      1.63666000       7
H               3.47683000     -1.14308000     -5.16456000       1
I               2.44507000     -5.27076000      2.51934000      53
C              -2.33261000     -4.81961000     -3.45515000       6
I               0.56420500     -2.73283000      5.76683000      53
H              -3.09580000     -4.20684000     -3.94033000       1
H              -5.25732000      0.07872550     -4.03127000       1
H              -0.98957900      4.17255000     -5.14210000       1
H              -6.74617000     -0.00688481      1.03420000       1
H              -2.79800000     -5.58224000     -2.82775000       1
N              -2.46271000     -5.71279000      2.91215000       7
H              -3.01955000      4.77591000     -3.94033000       1
H              -3.08749000     -5.14143000      3.51612000       1
H               5.99770000      2.70621000      2.25556000       1
I               2.61814000     -5.31192000     -3.90357000      53
P               2.39802000      3.54561000      5.66402000      15
H              -6.02844000     -1.73035000      3.37176000       1
I               4.16405000      0.85513300      5.71276000      53
H              -1.06583000     -4.81020000     -5.14210000       1
H              -6.19433000     -1.92318000     -2.97944000       1
P               7.09151000     -0.71280300     -0.70238900      15
I               0.96100400      1.02481000     -7.05765000      53
N              -1.53070000     -5.50300000     -4.51481000       7
H              -3.03412000     -6.27654000      2.25556000       1
P              -1.79443000     -0.74637000     -7.09184000      15
P              -6.33036000      3.74689000     -0.70179700      15
H              -0.80618500     -6.11314000     -4.10910000       1
C              -6.76833000     -1.18222000      2.78390000       6
I               6.94670000     -0.87495700      2.51658000      53
N              -5.96829000     -0.49085200     -4.51334000       7
I              -4.79151000      0.85513300      5.71276000      53
H              -1.91591000     -6.34245000      3.53408000       1
H              -5.47873000     -1.14308000     -5.16456000       1
H               6.23382000      3.40051000     -2.82775000       1
H               1.50823000      7.11733000      2.38847000       1
I              -4.38693000      6.33189000     -0.72630600      53
C              -6.82928000     -1.25051000     -3.55814000       6
I              -3.87837000     -3.66596000      5.69821000      53
I              -0.02838700     -3.43684000     -7.04310000      53
I               4.56864000      6.33189000     -0.72630600      53
I              -6.43424000      3.71198000      2.51934000      53
I               0.65487500     -7.82564000     -0.64611900      53
N               6.56911000      3.26996000      2.91215000       7
H               5.94432000      3.84132000      3.51612000       1
H              -7.33179000     -0.53737100     -2.90259000       1
H              -7.23755000     -0.40435200      3.39070000       1
I              -3.55198000      1.95794000     -6.98902000      53
I               7.05465000     -0.64891100     -3.90283000      53
H               2.04075000     -1.78370000      7.62724000       1
H              -7.52358000     -1.86541000      2.38847000       1
I              -3.83696000     -7.13262000     -0.44233700      53
H               6.81063000     -4.17171000      1.50792000       1
H               2.83748000      7.05957000     -2.97944000       1
P               2.32176000     -5.43714000      5.66402000      15
H               5.85977000     -4.20684000     -3.94033000       1
H              -2.15169000     -6.07567000     -5.12861000       1
I              -6.26117000      3.67083000     -3.90357000      53
H               3.12661000     -0.51822000      7.61376000       1
P              -6.40662000     -5.23585000     -0.70179700      15
H              -6.55192000      0.12686300     -5.11759000       1
H              -1.28629000      3.14890000      7.59130000       1
I              -8.22444000      1.15710000     -0.64611900      53
H               7.11591000      2.64029000      3.53408000       1
H               1.46950000      7.16136000     -4.13275000       1
I               5.07719000     -3.66596000      5.69821000      53
P               2.75605000      3.75433000     -7.09070000      15
P              -1.78781000      8.26994000     -0.70238900      15
H               3.41516000      7.74231000      1.01952000       1
I               0.64045700      6.24992000      5.76683000      53
H               6.88688000      4.81104000      1.50792000       1
H               3.00338000      7.25240000      3.37176000       1
H               5.86807000     -5.14143000      3.51612000       1
H               5.93602000      4.77591000     -3.94033000       1
C               2.26349000      7.80053000      2.78390000       6
C               6.69921000      4.16314000     -3.45515000       6
I              -3.80212000      5.31679000      5.69821000      53
I              -1.93261000      8.10779000      2.51658000      53
I               4.41685000     -2.48137000     -7.10400000      53
N               2.66174000     -1.21103000      8.24104000       7
I              -6.51049000     -5.27076000      2.51934000      53
H               6.15757000     -5.58224000     -2.82775000       1
I              -4.53871000     -2.48137000     -7.10400000      53
I               5.11860000     -7.13262000     -0.44233700      53
C               2.20253000      7.73224000     -3.55814000       6
H              -7.56232000     -1.82138000     -4.13275000       1
C               7.48880000      4.15392000      2.13988000       6
H               1.09664000      0.08513660      8.81553000       1
H               7.29299000     -4.19358000     -2.86493000       1
C               6.62295000     -4.81961000     -3.45515000       6
H               5.92144000     -6.27654000      2.25556000       1
P               6.87224000     -0.93643700      5.66515000      15
I               0.04786470      5.54590000     -7.04310000      53
H               8.13849000      3.52530000      1.52648000       1
I               5.40358000      1.95794000     -6.98902000      53
H               6.88012000      2.90707000     -5.12861000       1
H               1.70003000      8.44538000     -2.90259000       1
C               7.41255000     -4.82883000      2.13988000       6
N               2.95917000      8.45112000      1.63666000       7
N               6.49285000     -5.71279000      2.91215000       7
H              -2.35948000      4.41884000      7.63827000       1
I              -0.42252300     -7.17214000      5.65186000      53
I              -6.33742000     -5.31192000     -3.90357000      53
I              -2.14498000     -1.01994000      8.85229000      53
P               2.67980000     -5.22841000     -7.09070000      15
H              -2.43573000     -4.56391000      7.63827000       1
H               7.36925000      4.78917000     -2.86493000       1
N              -1.77585000      3.80112000      8.24252000       7
H               2.13314000     -8.98963000      1.03420000       1
H               2.28565000      8.97586000      1.03420000       1
I               5.15344000      5.31679000      5.69821000      53
P              -6.55755000      3.54561000      5.66402000      15
I              -1.82467000      8.33384000     -3.90283000      53
H               1.79426000      8.57839000      3.39070000       1
H               1.75188000     -0.45065800     -9.23974000       1
N               7.50112000      3.47974000     -4.51481000       7
H               3.38626000     -1.82117000      8.64676000       1
I              -8.87832000     -3.24201000     -0.78415800      53
H               8.00456000     -4.24230000      2.84619000       1
C               1.85983000     -0.52763400      9.30071000       6
H              -5.54041000      7.74231000      1.01952000       1
H              -3.36988000      2.47059000      8.62311000       1
H              -5.82895000     -0.51822000      7.61376000       1
I               9.03281000     -3.24201000     -0.78415800      53
H               8.22563000      2.86960000     -4.10910000       1
H              -1.36254000     -5.83385000      7.59130000       1
H               3.53695000     -8.85903000      1.94956000       1
I               9.68669000      1.15710000     -0.64611900      53
H               8.08081000      4.74044000      2.84619000       1
H              -6.11808000      7.05957000     -2.97944000       1
H               2.92347000     -1.65168000     -9.22178000       1
H              -1.06488000      4.37070000      8.72459000       1
I               2.29152000      3.64307000      8.85303000      53
H               8.06224000     -5.45745000      1.52648000       1
N              -1.85210000     -5.18162000      8.24252000       7
H              -1.18906000      2.96042000     -9.38410000       1
P              -1.94031000     -9.69555000     -0.70238900      15
H              -1.14113000     -4.61204000      8.72459000       1
H              -5.95219000      7.25240000      3.37176000       1
H               3.68945000      9.10646000      1.94956000       1
H               3.55308000      7.83967000     -5.16456000       1
C              -2.63684000      3.04147000      9.19772000       6
P              -2.00707000      8.04631000      5.66515000      15
N               2.80667000     -9.51437000      1.63666000       7
H               1.54752000     -9.52012000     -2.90259000       1
N               3.06352000      8.49189000     -4.51334000       7
P               7.16114000     -0.74637000     -7.09184000      15
H               1.39444000     -1.29026000      9.92811000       1
H               7.03965000     -6.34245000      3.53408000       1
