200
cutoff_factor=1.20000000 nneightol=1.20000000 Lattice="29.69265000       0.00000000       0.00000000       0.00000000      28.71911000       0.00000000       0.00000000       0.00000000      29.41530000" Properties=species:S:1:pos:R:3:Z:I:1
I              -0.76096200      0.84188800     -0.09397060      53
P               1.13287000     -1.69029000      0.02151060      15
H               0.38481600      2.33244000     -1.80111000       1
H               1.05505000      2.57738000      1.81304000       1
I               3.65714000      0.18631500      0.16368300      53
H               1.16983000      1.49202000      3.23805000       1
I               0.87445700     -1.78557000      3.24117000      53
I               1.28212000     -1.72086000     -3.21760000      53
I              -1.35440000     -3.68614000     -0.15803800      53
N               0.78770000      3.15314000     -2.30435000       7
H              -2.13093000     -1.53850000     -3.01123000       1
C               1.34560000      2.50286000      2.86323000       6
H              -3.15834000     -1.88191000      1.76839000       1
H              -3.38348000     -1.50177000     -1.72723000       1
H               1.56040000      3.52366000     -1.71035000       1
H              -1.74405000     -1.23117000      3.63980000       1
P              -3.36340000      2.71710000      0.00834482      15
H              -2.89866000     -0.03370090      3.33637000       1
H               0.05559740      3.88255000     -2.32628000       1
C              -3.16596000     -1.78171000     -2.76035000       6
H               2.03974000      2.03918000     -3.58292000       1
N              -2.76079000     -1.01441000      3.65121000       7
H               2.39453000      2.78073000      2.98932000       1
C               1.26324000      2.80208000     -3.67300000       6
H              -0.50367500      3.21733000      3.58206000       1
H               0.41632700      2.41874000     -4.24666000       1
C              -3.51998000     -1.97392000      2.79504000       6
N               0.50740800      3.45223000      3.65348000       7
I              -3.10283000      2.67790000      3.24178000      53
I              -5.24225000      0.18631500      0.16368300      53
I               3.05467000     -4.29172000      0.08689620      53
H              -3.90834000      0.01717020     -3.54096000       1
H              -3.35708000     -2.84604000     -2.91554000       1
H               3.83471000     -1.21144000     -3.45864000       1
I              -3.44176000      2.58384000     -3.22903000      53
I              -1.42683000      5.23563000     -0.15803800      53
H               4.31815000     -1.72063000      2.84953000       1
H              -3.34796000     -2.98452000      3.17217000       1
I               2.98224000      4.63004000      0.08689620      53
H               0.12802500     -5.03921000     -2.32628000       1
N              -4.06381000     -1.00546000     -3.65976000       7
H               0.64425800      4.43634000      3.34896000       1
H               0.71668600     -4.48543000      3.34896000       1
H              -4.58123000     -1.72063000      2.84953000       1
H              -3.09768000     -1.06510000      4.63455000       1
H               1.66585000      3.70296000     -4.14183000       1
H               0.77887800      3.40968000      4.65650000       1
H               1.63282000     -5.39811000     -1.71035000       1
H               5.51591000     -1.50177000     -1.72723000       1
H               4.99105000      0.01717020     -3.54096000       1
N               4.83558000     -1.00546000     -3.65976000       7
P               5.53599000      2.71710000      0.00834482      15
H              -3.88628000     -1.24885000     -4.65298000       1
H              -5.06468000     -1.21144000     -3.45864000       1
N               0.86012800     -5.76862000     -2.30435000       7
H               5.74105000     -1.88191000      1.76839000       1
C               5.37940000     -1.97392000      2.79504000       6
I              -0.60130900      1.03425000      6.48986000      53
N               0.57983600     -5.46954000      3.65348000       7
C               5.73342000     -1.78171000     -2.76035000       6
H               1.12748000     -6.34439000      1.81304000       1
P               1.03262000     -1.68114000     -6.42277000      15
I              -1.67080000      0.00344789     -6.51110000      53
H              -0.43124700     -5.70444000      3.58206000       1
P               1.18028000     -1.62620000      6.48309000      15
H               0.45724400     -6.58932000     -1.80111000       1
I               5.45763000      2.58384000     -3.22903000      53
H               6.00073000     -0.03370090      3.33637000       1
H               5.54231000     -2.84604000     -2.91554000       1
H               1.73828000     -5.21881000     -4.14183000       1
H               5.01311000     -1.24885000     -4.65298000       1
P              -3.29097000     -6.20466000      0.00834482      15
H               5.55143000     -2.98452000      3.17217000       1
I               2.86119000      0.95707100     -6.46590000      53
I               5.79655000      2.67790000      3.24178000      53
C               1.41803000     -6.41890000      2.86323000       6
N               6.13860000     -1.01441000      3.65121000       7
I              -5.84472000     -4.29172000      0.08689620      53
C               1.33567000     -6.11969000     -3.67300000       6
H               2.46696000     -6.14103000      2.98932000       1
H               0.85130600     -5.51208000      4.65650000       1
P               1.06044000      7.23147000      0.02151060      15
I               3.87207000      0.03195860      6.38266000      53
I              -1.52841000     -3.48965000      6.44235000      53
H               5.80171000     -1.06510000      4.63455000       1
I              -5.91715000      4.63004000      0.08689620      53
H              -3.42039000      5.93724000      3.17217000       1
H              -3.42951000      6.07572000     -2.91554000       1
H               6.76846000     -1.53850000     -3.01123000       1
I              -3.03041000     -6.24386000      3.24178000      53
H              -6.50486000      2.78073000      2.98932000       1
P              -3.32951000      2.82052000     -6.42515000      15
H               0.48875500     -6.50302000     -4.24666000       1
P              -3.42941000      2.79390000      6.48548000      15
I              -3.36933000     -6.33792000     -3.22903000      53
I               0.80202900      7.13619000      3.24117000      53
I              -0.56529100     -4.44308000     -6.52559000      53
I              -0.63771900      4.47868000     -6.52559000      53
H              -3.23076000      7.03986000      1.76839000       1
P              -7.76652000     -1.69029000      0.02151060      15
I               1.20969000      7.20090000     -3.21760000      53
H              -6.85964000      2.03918000     -3.58292000       1
H               2.11217000     -6.88258000     -3.58292000       1
I              -0.68853400     -8.07987000     -0.09397060      53
H               7.15534000     -1.23117000      3.63980000       1
I              -5.02732000      0.03195860      6.38266000      53
I               8.13843000      0.84188800     -0.09397060      53
H               1.24226000     -7.42974000      3.23805000       1
I               3.86072000     -3.44079000     -6.41839000      53
H              -2.20336000      7.38327000     -3.01123000       1
I               2.76656000      4.47849000      6.39715000      53
I               2.83899000     -4.44328000      6.39715000      53
C              -3.59241000      6.94784000      2.79504000       6
C              -3.23839000      7.14006000     -2.76035000       6
H              -7.33899000      3.52366000     -1.71035000       1
P               5.60841000     -6.20466000      0.00834482      15
H              -3.45591000      7.41999000     -1.72723000       1
I               7.54499000     -3.68614000     -0.15803800      53
I              -7.61727000     -1.72086000     -3.21760000      53
H              -7.84433000      2.57738000      1.81304000       1
C              -7.55379000      2.50286000      2.86323000       6
H              -7.72956000      1.49202000      3.23805000       1
I              -1.60083000      5.43211000      6.44235000      53
H               5.47900000      5.93724000      3.17217000       1
H               5.46988000      6.07572000     -2.91554000       1
H              -1.81648000      7.69059000      3.63980000       1
H               4.24573000      7.20114000      2.84953000       1
I              -8.02493000     -1.78557000      3.24117000      53
I              -5.03867000     -3.44079000     -6.41839000      53
H               0.55108300      3.22619000      8.25527000       1
I              -6.03819000      0.95707100     -6.46590000      53
C              -7.63615000      2.80208000     -3.67300000       6
P               5.46998000      2.79390000      6.48548000      15
P               5.56988000      2.82052000     -6.42515000      15
N              -8.11169000      3.15314000     -2.30435000       7
I               5.53006000     -6.33792000     -3.22903000      53
H              -8.51457000      2.33244000     -1.80111000       1
H               1.29192000      3.38163000     -8.27370000       1
H              -4.65366000      7.20114000      2.84953000       1
H              -3.65848000     -1.06536000     -8.25175000       1
H              -7.23354000      3.70296000     -4.14183000       1
I               7.47256000      5.23563000     -0.15803800      53
N              -2.83321000      7.90736000      3.65121000       7
I               5.86898000     -6.24386000      3.24178000      53
C               5.30698000      6.94784000      2.79504000       6
H               5.66862000      7.03986000      1.76839000       1
H              -2.72375000     -0.74376600      8.76642000       1
H              -7.26656000     -5.39811000     -1.71035000       1
H               3.76228000      7.71032000     -3.45864000       1
I               3.78829000      5.48098000     -6.41839000      53
H               5.44348000      7.41999000     -1.72723000       1
H              -6.43243000     -6.14103000      2.98932000       1
P              -3.25708000     -6.10124000     -6.42515000      15
I               3.72957000     -8.73545000      0.16368300      53
C               5.66100000      7.14006000     -2.76035000       6
P              -3.35698000     -6.12786000      6.48548000      15
N              -4.13624000      7.91630000     -3.65976000       7
H              -3.17011000      7.85667000      4.63455000       1
H               8.39571000      3.21733000      3.58206000       1
I              -9.66035000      0.84188800     -0.09397060      53
P               0.96018900      7.24062000     -6.42277000      15
I               7.22859000      0.00344789     -6.51110000      53
H               9.28420000      2.33244000     -1.80111000       1
H              -3.97327000     -2.02798000      8.66159000       1
H              -7.16111000     -5.21881000     -4.14183000       1
N              -8.39198000      3.45223000      3.65348000       7
I               3.58471000      9.10808000      0.16368300      53
H              -8.48306000      2.41874000     -4.24666000       1
I              -0.83339100      9.76365000     -0.09397060      53
H              -3.95870000      7.67291000     -4.65298000       1
P               1.10785000      7.29556000      6.48309000      15
H               5.24091000     -1.06536000     -8.25175000       1
I              -5.11110000      5.48098000     -6.41839000      53
I              -6.06040000     -4.44328000      6.39715000      53
N               0.37355000      3.46958000      9.24848000       7
C              -3.12636000     -1.64465000      9.23525000       6
H              -5.13711000      7.71032000     -3.45864000       1
H               1.04164000      1.46220000     -9.73608000       1
H              -2.34986000     -2.40754000      9.32532000       1
H              -8.18270000     -4.48543000      3.34896000       1
I               1.06803000     -1.86288000      9.67922000      53
I               1.35919000     -1.79714000     -9.66647000      53
I              -6.13283000      4.47849000      6.39715000      53
H              -8.84379000      3.88255000     -2.32628000       1
N               4.76315000      7.91630000     -3.65976000       7
H              -2.97108000      8.88806000      3.33637000       1
H              -8.25513000      4.43634000      3.34896000       1
H              -8.12051000      3.40968000      4.65650000       1
H              -2.82623000     -8.95546000      3.33637000       1
N               1.62881000      3.43232000     -9.25703000       7
H              -0.62732300      3.26360000      9.44960000       1
H               8.95499000      3.88255000     -2.32628000       1
H               0.62351100     -5.69558000      8.25527000       1
H               1.36435000     -5.54014000     -8.27370000       1
N              -3.92995000     -1.02281000     -9.25477000       7
I              -5.16982000     -8.73545000      0.16368300      53
N              -8.03926000     -5.76862000     -2.30435000       7
H               2.64555000      3.21555000     -9.26844000       1
H               4.92611000     -2.02798000      8.66159000       1
P              10.03230000     -1.69029000      0.02151060      15
