200
cutoff_factor=1.20000000 nneightol=1.20000000 Lattice="27.77367000       0.00000000       0.00000000       0.00000000      29.19238000       0.00000000       0.00000000       0.00000000      28.39221000" Properties=species:S:1:pos:R:3:Z:I:1
I              -0.04904550     -1.61036000      0.37794600      53
P               1.66792000      0.44369500     -1.29481000      15
H              -1.49611000      1.40548000      1.87268000       1
H               1.50820000     -1.43557000      2.39468000       1
I              -1.01876000      1.85373000     -2.38554000      53
I               1.64216000      2.45626000      1.20751000      53
H              -2.38864000      2.26795000     -0.19557500       1
C              -2.23975000      2.20522000      1.90173000       6
H              -3.49948000      1.25167000      0.51634500       1
N              -3.01918000      2.17227000      0.62774700       7
H              -1.75083000      3.17740000      1.98264000       1
N               2.08555000     -1.62301000      3.24306000       7
P              -2.64653000     -3.21890000      1.31029000      15
H               1.75252000     -4.02616000     -0.31965600       1
H              -3.06639000     -0.14083300     -3.17580000       1
H               2.87549000     -0.96131000      3.28754000       1
I               4.37539000     -0.96834900     -0.16485300      53
H              -2.92962000      2.05141000      2.73221000       1
I               1.93691000     -1.37681000     -3.89397000      53
I              -4.51145000     -0.96834900     -0.16485300      53
H              -1.41864000     -1.60770000     -4.13497000       1
H               0.82769700     -0.56823200      4.56518000       1
H               2.48357000     -2.57897000      3.10418000       1
H              -3.72976000      2.91859000      0.59629400       1
H               1.32804000      4.59794000     -0.43817000       1
H               1.79072000     -3.98821000     -2.11412000       1
C               1.23828000     -1.57433000      4.47013000       6
H              -2.66817000     -2.53900000     -3.24333000       1
H               0.43441500     -2.30652000      4.36438000       1
C               2.00482000     -4.58388000     -1.22406000       6
I              -2.91016000     -1.40777000      4.01288000      53
C              -2.46751000     -1.91223000     -4.11507000       6
I               3.47891000      2.66911000     -2.74200000      53
N              -3.31433000     -0.68499100     -4.02138000       7
H               1.39330000      4.64379000     -2.11013000       1
N               1.15178000      5.20026000     -1.26799000       7
H               5.38735000      1.25167000      0.51634500       1
H               0.13900300      5.43868000     -1.30500000       1
H               1.87186000      1.69571000     -5.12316000       1
H               0.15167900     -5.57803000     -1.30500000       1
H              -3.16015000     -0.06585800     -4.84311000       1
I              -0.14807400      2.02420000      5.43714000      53
I              -2.47890000     -5.11252000     -1.26533000      53
H               3.05542000     -4.88263000     -1.20682000       1
H               1.86358000     -1.81670000      5.33150000       1
H              -4.32421000     -0.93598000     -3.97845000       1
H               5.15707000      2.91859000      0.59629400       1
P               1.73895000      4.16412000      3.94799000      15
I              -0.80736100     -5.22002000      2.96299000      53
N               1.16446000     -5.81646000     -1.26799000       7
H               4.56262000     -0.93598000     -3.97845000       1
H               0.44269800      1.20589000     -6.09028000       1
H              -2.72706000     -2.44080000     -5.03474000       1
N               5.86765000      2.17227000      0.62774700       7
I               3.58733000     -4.70178000      2.32354000      53
P              -2.80248000      4.12724000     -3.94190000      15
C               1.24656000      1.93808000     -5.98453000       6
I              -2.49157000      5.90420000     -1.26533000      53
I              -0.82003700      5.79670000      2.96299000      53
H               1.34071000     -6.41878000     -0.43817000       1
I              -5.40792000      2.66911000     -2.74200000      53
H               5.82044000     -0.14083300     -3.17580000       1
H               0.83598000      2.94418000     -5.88948000       1
C               1.99214000      6.43283000     -1.22406000       6
H               1.40597000     -6.37293000     -2.11013000       1
H               5.95721000      2.05141000      2.73221000       1
H               6.49819000      2.26795000     -0.19557500       1
N               5.57250000     -0.68499100     -4.02138000       7
H              -6.01135000     -0.96131000      3.28754000       1
H               3.04275000      6.13409000     -1.20682000       1
P              -2.81076000      0.61482500      6.51275000      15
I               4.30554000      2.68801000      4.99792000      53
P               6.24030000     -3.21890000      1.31029000      15
H               1.73985000      6.99055000     -0.31965600       1
C               6.64709000      2.20522000      1.90173000       6
I              -4.58129000      2.68801000      4.99792000      53
I               5.97667000     -1.40777000      4.01288000      53
P              -7.21891000      0.44369500     -1.29481000      15
H              -3.16843000     -3.57827000      5.61154000       1
I              -2.90187000      2.10464000     -6.44177000      53
I              -0.12711500     -5.48011000     -5.01752000      53
I              -5.29950000     -4.70178000      2.32354000      53
H               6.21867000     -2.53900000     -3.24333000       1
I              -0.13979100      5.53661000     -5.01752000      53
H               5.72668000     -0.06585800     -4.84311000       1
P               1.75991000     -3.34018000     -6.50666000      15
H               1.77805000      7.02850000     -2.11412000       1
H              -6.40326000     -2.57897000      3.10418000       1
I               3.57465000      6.31494000      2.32354000      53
H              -5.83141000     -4.88263000     -1.20682000       1
N              -6.80128000     -1.62301000      3.24306000       7
I              -0.79907800     -1.70761000     -7.49167000      53
N               2.09383000      1.88941000     -7.21160000       7
I              -7.24467000      2.45626000      1.20751000      53
H               7.39072000      1.40548000      1.87268000       1
H               2.49185000      0.93344800     -7.35047000       1
C               6.41932000     -1.91223000     -4.11507000       6
H              -7.37864000     -1.43557000      2.39468000       1
H              -2.74801000      5.06351000      5.41992000       1
H               7.13601000      3.17740000      1.98264000       1
I              -6.94992000     -1.37681000     -3.89397000      53
P               1.75163000     -6.85259000      3.94799000      15
H               2.88377000      2.55110000     -7.16712000       1
H              -7.13431000     -4.02616000     -0.31965600       1
H              -1.42692000     -5.12011000      6.31969000       1
H              -1.73815000     -7.83932000      1.98264000       1
I               6.40793000     -5.11252000     -1.26533000      53
I              -1.02704000     -1.65868000      8.06912000      53
H               6.15978000     -2.44080000     -5.03474000       1
P               6.08435000      4.12724000     -3.94190000      15
P              -2.65921000      7.79782000      1.31029000      15
C              -6.88201000     -4.58388000     -1.22406000       6
N              -3.32261000     -4.19740000      6.43328000       7
I               1.92863000     -4.88922000      6.56069000      53
H              -7.09611000     -3.98821000     -2.11412000       1
P              -2.78980000     -6.88948000     -3.94190000      15
I               7.86807000      1.85373000     -2.38554000      53
H               1.51648000      2.07684000     -8.05998000       1
I               4.32650000     -4.81630000     -5.45673000      53
I               3.47063000     -0.84330900      7.71266000      53
H              -2.73534000     -5.95321000      5.41992000       1
H               1.38502000      1.13137000      8.34452000       1
H              -5.84409000      6.13409000     -1.20682000       1
I              -5.31218000      6.31494000      2.32354000      53
I              -4.56033000     -4.81630000     -5.45673000      53
H               7.46819000     -1.60770000     -4.13497000       1
C              -2.47580000     -5.42464000      6.33959000       6
H              -3.07467000     -3.65325000      7.27885000       1
H              -1.43960000      5.89660000      6.31969000       1
H               5.71840000     -3.57827000      5.61154000       1
I               6.39526000      5.90420000     -1.26533000      53
I               1.65483000     -8.56046000      1.20751000      53
C              -2.48847000      5.59208000      6.33959000       6
H              -7.01497000      1.69571000     -5.12316000       1
H              -7.55880000      4.59794000     -0.43817000       1
P               6.07607000      0.61482500      6.51275000      15
H              -3.71708000     -8.09813000      0.59629400       1
I               3.59561000     -1.18936000     -8.13112000      53
H              -4.33249000     -4.44839000      6.47620000       1
I               8.83779000     -1.61036000      0.37794600      53
C              -7.64856000     -1.57433000      4.47013000       6
H              -7.02325000     -1.81670000      5.33150000       1
I               5.98496000      2.10464000     -6.44177000      53
H              -7.49353000      4.64379000     -2.11013000       1
H              -2.37596000     -8.74876000     -0.19557500       1
H               4.55434000     -4.44839000      6.47620000       1
I              -8.93588000     -1.61036000      0.37794600      53
H              -2.68913000      4.96530000      7.21133000       1
P              -7.14788000      4.16412000      3.94799000      15
I               1.91596000      6.12749000      6.56069000      53
H               1.76977000      3.51609000      8.34053000       1
H              -8.05914000     -0.56823200      4.56518000       1
C              -2.22707000     -8.81150000      1.90173000       6
I               4.31382000      6.20042000     -5.45673000      53
H               2.47089000      8.43775000      3.10418000       1
H               0.13072000      1.92627000      9.14966000       1
N              -3.00651000     -8.84445000      0.62774700       7
N              -7.73505000      5.20026000     -1.26799000       7
N               1.14350000      1.68784000      9.18666000       7
I              -0.06172120      9.40636000      0.37794600      53
I              -4.57301000      6.20042000     -5.45673000      53
I               3.49158000     -8.34761000     -2.74200000      53
I              -5.41621000     -0.84330900      7.71266000      53
H              -2.68084000      8.47772000     -3.24333000       1
N               5.56422000     -4.19740000      6.43328000       7
C              -6.89469000      6.43283000     -1.22406000       6
I              -1.00609000     -9.16298000     -2.38554000      53
P              -2.63825000      0.29351600     -9.14437000      15
H               5.16975000     -8.09813000      0.59629400       1
H               6.13882000      5.06351000      5.41992000       1
H              -1.72987000     -4.32690000     -8.47202000       1
H              -6.00306000      2.55110000     -7.16712000       1
N              -7.72237000     -5.81646000     -1.26799000       7
H               0.42173900      8.71020000      4.36438000       1
I              -5.29122000     -1.18936000     -8.13112000      53
H              -2.67645000     -6.05142000      7.21133000       1
H              -6.39498000      0.93344800     -7.35047000       1
H              -8.45242000     -2.30652000      4.36438000       1
P               1.65964000     -3.06872000      9.15985000      15
H              -2.91695000     -8.96531000      2.73221000       1
I              -2.49986000      2.39178000      9.18933000      53
H              -3.18111000      7.43844000      5.61154000       1
C               1.98386000      2.92042000      9.23060000       6
H              -2.90866000     -5.45289000     -7.72244000       1
C              -7.64027000      1.93808000     -5.98453000       6
H              -1.48344000     -9.61124000      1.87268000       1
H              -7.54612000     -6.41878000     -0.43817000       1
N              -3.33529000      6.81931000      6.43328000       7
H              -2.92134000      5.56382000     -7.72244000       1
H               1.49552000      9.58114000      2.39468000       1
H              -7.14698000      6.99055000     -0.31965600       1
H              -1.48783000      4.91789000     -8.58198000       1
H               5.81216000     -3.65325000      7.27885000       1
P               6.09703000     -6.88948000     -3.94190000      15
H               0.84865500     -8.07254000     -5.88948000       1
H              -7.48086000     -6.37293000     -2.11013000       1
I               8.07947000     -5.22002000      2.96299000      53
P               6.22762000      7.79782000      1.31029000      15
H               3.03446000      2.62168000      9.24784000       1
N              -6.79300000      1.88941000     -7.21160000       7
