200
cutoff_factor=1.20000000 nneightol=1.20000000 Lattice="29.35446000       0.00000000       0.00000000       0.00000000      28.52265000       0.00000000       0.00000000       0.00000000      28.80709000" Properties=species:S:1:pos:R:3:Z:I:1
H              -0.11712000      0.68438600     -0.93585800       1
N               0.17676500     -0.26695300     -1.22992000       7
H               0.96785200     -0.56841100     -0.61113100       1
H              -1.27369000     -1.18722000     -0.01217320       1
C              -0.98963500     -1.17773000     -1.06685000       6
H               0.51107700     -0.28641000     -2.21355000       1
H              -1.81262000     -0.80204100     -1.67703000       1
H              -0.69586400     -2.17708000     -1.39311000       1
I              -1.98199000      1.85137000      0.74947500      53
I               2.97157000     -1.08818000      0.71402700      53
I               2.36626000      3.39871000      0.65995500      53
H               3.42361000      2.10096000     -1.42411000       1
H               0.42791000     -3.61736000     -2.24455000       1
H              -2.80914000      2.61655000     -1.96062000       1
I              -1.83642000     -4.21027000      0.65995500      53
P              -0.28930300      3.97519000      2.40745000      15
I               1.56845000     -1.58418000     -4.29762000      53
I               1.28382000      1.80806000      4.32489000      53
H               2.96686000      2.38295000     -3.02654000       1
N               3.75793000      2.08149000     -2.40774000       7
H               4.05181000      1.13014000     -2.70179000       1
P               4.00966000      1.38002000      2.68268000      15
I              -2.63976000     -0.03684080     -4.38714000      53
I               0.96314000      2.90271000     -4.35170000      53
C               0.72167200     -4.61672000     -2.57081000       6
C              -3.63211000      2.99225000     -2.57081000       6
H              -4.50465000      1.13014000     -2.70179000       1
P              -4.54680000      1.38002000      2.68268000      15
H               1.54464000     -4.99242000     -1.96062000       1
H              -1.05219000     -1.50263000      5.38135000       1
H               0.99338100     -0.20473800      5.62971000       1
H              -5.13285000      2.10096000     -1.42411000       1
I              -5.58489000     -1.08818000      0.71402700      53
H              -0.77906500     -5.50801000     -1.42411000       1
N              -4.79853000      2.08149000     -2.40774000       7
H              -3.34805000      3.00173000     -3.62549000       1
I              -3.65744000     -1.20375000      4.35698000      53
H               1.00573000     -4.60724000     -3.62549000       1
P               4.06448000     -3.63378000      2.40745000      15
H              -3.92588000      3.99161000     -2.24455000       1
N              -0.44474200     -5.52748000     -2.40774000       7
H               1.22790000     -1.86771000      5.64868000       1
H              -1.23582000     -5.22602000     -3.02654000       1
I               1.45735000     -4.07087000      4.46151000      53
P              -4.49198000     -3.63378000      2.40745000      15
I               2.37180000     -5.75760000      0.74947500      53
C               4.92435000      2.99225000     -2.57081000       6
P              -0.07494820      0.43451300     -6.32035000      15
N               0.83114500     -1.07265000      6.19287000       7
I              -2.89643000      3.53810000      4.46151000      53
H               4.63059000      3.99161000     -2.24455000       1
C              -0.62789100     -1.30942000      6.36725000       6
H               5.74732000      2.61655000     -1.96062000       1
H               3.50681000      5.43189000     -1.39311000       1
I               4.89902000     -1.20375000      4.35698000      53
I              -1.38222000      6.52079000      0.71402700      53
P              -0.19301400     -6.22896000      2.68268000      15
H              -5.58960000      2.38295000     -3.02654000       1
I               6.57448000      1.85137000      0.74947500      53
H              -1.07592000     -0.41809500      6.80945000       1
H               6.74385000     -0.80204100     -1.67703000       1
H               5.20841000      3.00173000     -3.62549000       1
H              -0.15086600     -6.47883000     -2.70179000       1
H               2.92899000      6.42175000     -0.01217320       1
I              -6.19021000      3.39871000      0.65995500      53
I              -3.23954000     -4.70626000     -4.35170000      53
C               3.21304000      6.43124000     -1.06685000       6
H               1.32052000     -0.97778100      7.10837000       1
I               5.91670000     -0.03684080     -4.38714000      53
H               7.28277000     -1.18722000     -0.01217320       1
H              -0.76445600     -2.17591000      7.01776000       1
H               2.39006000      6.80693000     -1.67703000       1
H              -5.04965000      5.43189000     -1.39311000       1
H               0.59876200      2.67005000      7.03618000       1
H              -7.58861000     -0.56841100     -0.61113100       1
H              -1.79766000      3.22978000      6.73724000       1
P               4.22402000     -2.16066000     -6.04512000      15
C               7.56683000     -1.17773000     -1.06685000       6
P              -4.33245000     -2.16066000     -6.04512000      15
I               0.54523900      6.40522000      4.35698000      53
I              -2.91885000     -5.80091000      4.32489000      53
H              -3.38593000      7.04056000     -0.61113100       1
I              -2.78533000      6.02479000     -4.29762000      53
I               6.72004000     -4.21027000      0.65995500      53
I               5.66003000      3.53810000      4.46151000      53
P              -0.12976900      5.44831000     -6.04512000      15
H               0.28734200      4.42787000      6.82788000       1
H               4.23667000     -6.92459000     -0.93585800       1
H              -4.31980000     -6.92459000     -0.93585800       1
H               7.86060000     -2.17708000     -1.39311000       1
C               0.15075100      3.56137000      7.47838000       6
I               5.31693000     -4.70626000     -4.35170000      53
H              -8.04538000     -0.28641000     -2.21355000       1
I              -6.98801000     -1.58418000     -4.29762000      53
I               2.65089000      0.00646953     -7.96255000      53
C              -5.34342000      6.43124000     -1.06685000       6
H               2.55613000     -4.37919000      6.73724000       1
N              -1.30829000      3.32464000      7.65274000       7
I              -1.72531000     -1.72357000     -8.09918000      53
N              -8.37970000     -0.26695300     -1.22992000       7
I              -6.18466000     -5.75760000      0.74947500      53
H              -3.91533000     -3.18110000      6.82788000       1
H               8.43934000      0.68438600     -0.93585800       1
N              -4.17702000      7.34202000     -1.22992000       7
H              -5.62747000      6.42175000     -0.01217320       1
H              -3.84271000      7.32256000     -2.21355000       1
I              -0.96429900      3.01828000     -7.99466000      53
N               4.37944000      7.34202000     -1.22992000       7
H              -3.12588000      5.74126000      5.64868000       1
I              -7.27264000      1.80806000      4.32489000      53
H              -1.47055000      2.45673000      8.21590000       1
H               3.15049000      6.10634000      5.38135000       1
H              -8.67358000      0.68438600     -0.93585800       1
H               5.17053000      7.04056000     -0.61113100       1
I              -1.23111000     -8.69716000      0.71402700      53
H              -3.23482000     -8.17738000     -0.61113100       1
N               8.73323000     -0.26695300     -1.22992000       7
H              -7.01182000     -4.99242000     -1.96062000       1
H               4.64113000     -3.18110000      6.82788000       1
I               1.56291000      7.57213000     -4.38714000      53
N              -4.02591000     -7.87592000     -1.22992000       7
H               2.54117000     -8.41101000     -1.67703000       1
I               1.71402000     -7.64581000     -4.38714000      53
H               4.71375000      7.32256000     -2.21355000       1
H              -3.69160000     -7.89538000     -2.21355000       1
H              -0.30197500      8.73911000     -2.70179000       1
N               4.53055000     -7.87592000     -1.22992000       7
I               5.63761000     -5.80091000      4.32489000      53
H              -8.12855000     -3.61736000     -2.24455000       1
I              -7.59332000      2.90271000     -4.35170000      53
H               0.57504100      3.75457000      8.46428000       1
N               3.04549000     -4.28433000      7.65274000       7
H               4.08556000      8.29336000     -0.93585800       1
H               2.64875000     -3.48926000      8.19693000       1
H               3.08010000     -8.79619000     -0.01217320       1
I              -7.09911000     -4.07087000      4.46151000      53
H              -3.60391000     -4.93892000      7.03618000       1
H              -1.70504000      4.11971000      8.19693000       1
H              -6.16640000      6.80693000     -1.67703000       1
H               9.06754000     -0.28641000     -2.21355000       1
H               7.50428000     -1.50263000      5.38135000       1
I               5.77113000      6.02479000     -4.29762000      53
P              -0.34412300      8.98899000      2.68268000      15
C              -4.05193000     -4.04760000      7.47838000       6
H              -7.56308000     -0.20473800      5.62971000       1
H              -7.32856000     -1.86771000      5.64868000       1
C              -7.83479000     -4.61672000     -2.57081000       6
H              -4.47091000      8.29336000     -0.93585800       1
C               3.36415000     -8.78670000     -1.06685000       6
P               8.26716000      3.97519000      2.40745000      15
H               7.32064000     -5.22602000     -3.02654000       1
H               3.43822000      5.43306000      7.01776000       1
H               4.86486000     -7.89538000     -2.21355000       1
H              -7.55073000     -4.60724000     -3.62549000       1
H               9.52431000     -0.56841100     -0.61113100       1
H              -9.25233000     -2.17708000     -1.39311000       1
C               4.50454000     -4.04760000      7.47838000       6
H               7.77740000     -5.50801000     -1.42411000       1
C               3.57478000      6.29956000      6.36725000       6
N              -3.52264000      6.53632000      6.19287000       7
C              -9.54610000     -1.17773000     -1.06685000       6
I              -1.76096000      0.44393100      9.52073000      53
H               5.43058000      5.74126000      5.64868000       1
I               7.17425000      6.52079000      0.71402700      53
I               2.22069000      9.46034000      0.74947500      53
H              -5.40597000      6.10634000      5.38135000       1
H               5.32164000     -8.17738000     -0.61113100       1
I               2.41929000     -1.28611000      9.38410000      53
I               3.38949000     -4.59069000     -7.99466000      53
I               0.69634800     -8.81272000      4.35698000      53
H              -0.93017400      9.70993000     -1.42411000       1
H              -3.36040000      7.40423000      5.62971000       1
H              -9.83015000     -1.18722000     -0.01217320       1
I              -5.90557000      0.00646953     -7.96255000      53
H               4.95255000     -4.93892000      7.03618000       1
H               2.94131000      2.01927000     -9.26738000       1
H               8.98437000     -3.61736000     -2.24455000       1
N              -7.72532000     -1.07265000      6.19287000       7
H              -3.62764000     -3.85440000      8.46428000       1
P              -8.84577000      3.97519000      2.40745000      15
N              -0.59585100      9.69046000     -2.40774000       7
H               0.78421900     -4.29187000     -9.01900000       1
H              -6.00033000     -4.37919000      6.73724000       1
H               6.75880000      3.22978000      6.73724000       1
N               8.11172000     -5.52748000     -2.40774000       7
H               2.88324000     -5.15224000      8.21590000       1
H               7.48054000     -0.41809500      6.80945000       1
H              -3.20930000     -7.81371000      5.62971000       1
H              -3.03327000      6.63119000      7.10837000       1
H              -7.23594000     -0.97778100      7.10837000       1
H              -1.49586000     -3.92672000     -9.28636000       1
H              -5.11824000      5.43306000      7.01776000       1
C              -4.98168000      6.29956000      6.36725000       6
H              -3.56957000      3.31711000     -9.01900000       1
C               7.92857000     -1.30942000      6.36725000       6
C              -5.19231000     -8.78670000     -1.06685000       6
I               2.47736000      5.88540000     -8.09918000      53
N               5.03382000      6.53632000      6.19287000       7
H               2.70682000      3.68225000     -9.28636000       1
N              -5.51097000     -4.28433000      7.65274000       7
