200
cutoff_factor=1.20000000 nneightol=1.20000000 Lattice="28.12623000       0.00000000       0.00000000       0.00000000      28.70916000       0.00000000       0.00000000       0.00000000      29.51670000" Properties=species:S:1:pos:R:3:Z:I:1
I              -1.28970000      0.72906000      0.45133600      53
H               1.59855000     -0.94773500      1.66712000       1
H               1.55043000     -1.44291000     -2.12404000       1
P               1.10577000      2.81687000      0.03086880      15
I               3.16432000      0.30592100     -0.39100700      53
H              -0.40577200     -1.22408000      2.99793000       1
N               1.65632000     -0.91516500      2.70037000       7
H               1.63265000      0.09282050      2.96436000       1
P              -3.28338000     -1.70855000     -0.03574020      15
C               0.53710300     -1.65596000      3.34117000       6
C               1.41295000     -2.27893000     -2.81175000       6
I              -0.86069800     -3.79619000      0.52100400      53
H               0.79283100     -3.05145000     -2.35174000       1
H              -2.74860000      1.76244000     -2.21571000       1
H              -0.22028000     -1.39296000     -3.76903000       1
H               0.60588300     -2.70661000      3.05082000       1
H               2.59152000     -1.28892000      2.97298000       1
I               0.67064100      2.91041000     -3.14152000      53
I               1.67814000      2.59885000      3.20979000      53
N               0.71360400     -1.77557000     -4.02764000       7
H              -2.64160000      1.65410000      3.19101000       1
I              -2.72584000     -1.58828000     -3.15921000      53
H               0.63226800     -1.55223000      4.42430000       1
H               2.37861000     -2.69160000     -3.11257000       1
H               1.28208000     -1.04932000     -4.51403000       1
C              -2.94999000      2.33085000     -3.12637000       6
H              -2.32719000      3.22705000     -3.16409000       1
H              -2.26073000      3.92255000      2.37337000       1
H              -4.04897000      2.27714000      2.26804000       1
H              -2.78192000      1.71037000     -4.00926000       1
C              -3.45602000      2.38194000      3.17955000       6
I              -0.93204800      5.24027000      0.52100400      53
H               0.53320600     -2.54195000     -4.70269000       1
H               3.96492000      1.93607000     -3.07065000       1
I              -3.94986000     -1.85142000      3.21391000      53
I               3.68072000     -4.21388000     -0.38660700      53
N              -2.86520000      3.75271000      3.20391000       7
I              -5.80605000      0.30592100     -0.39100700      53
H               4.92140000      2.27714000      2.26804000       1
P               5.68699000     -1.70855000     -0.03574020      15
H               4.39187000      3.35299000     -2.28087000       1
N              -4.37613000      2.75548000     -3.11239000       7
I               3.60937000      4.82258000     -0.38660700      53
H              -2.18938000     -5.11391000      2.37337000       1
H              -2.29110000      3.90911000      4.05626000       1
H              -4.57850000      3.35299000     -2.28087000       1
I              -1.36850000      0.67763900      5.98800000      53
H              -5.00545000      1.93607000     -3.07065000       1
H              -4.08739000      2.26196000      4.06290000       1
N               4.59423000      2.75548000     -3.11239000       7
I               5.02050000     -1.85142000      3.21391000      53
P               1.17712000     -6.21959000      0.03086880      15
H               0.72148100      5.98501000     -2.35174000       1
H              -3.59802000      4.48832000      3.19071000       1
H              -3.52667000     -4.54814000      3.19071000       1
I               3.04076000      0.26093500     -5.84463000      53
H               4.88298000      2.26196000      4.06290000       1
H               4.35581000      3.31237000     -3.96194000       1
I              -5.28965000     -4.21388000     -0.38660700      53
N              -2.79385000     -5.28375000      3.20391000       7
C               5.51435000      2.38194000      3.17955000       6
H               6.22177000      1.76244000     -2.21571000       1
I              -1.36418000      0.74350300     -6.69130000      53
H              -2.21975000     -5.12735000      4.05626000       1
I               0.74199200     -6.12605000     -3.14152000      53
H              -4.61456000      3.31237000     -3.96194000       1
P               1.08597000      2.71894000      6.34526000      15
H              -2.25584000     -5.80941000     -3.16409000       1
P               1.09029000      2.78480000     -6.33403000      15
H               0.53453300      6.32985000      3.05082000       1
H              -6.37885000     -1.28892000      2.97298000       1
I              -0.88472900     -3.84168000      5.97548000      53
C               6.02038000      2.33085000     -3.12637000       6
I               6.24453000     -1.58828000     -3.15921000      53
I              -5.36100000      4.82258000     -0.38660700      53
H               6.32877000      1.65410000      3.19101000       1
P              -3.43083000     -1.68808000     -6.27204000      15
I               1.74949000     -6.43761000      3.20979000      53
H               2.30726000      6.34486000     -3.11257000       1
C               1.34160000      6.75753000     -2.81175000       6
P              -3.43515000     -1.75395000      6.40726000      15
I               3.03643000      0.19507100      6.83466000      53
H               6.18844000      1.71037000     -4.00926000       1
H               4.46322000     -5.68347000     -2.28087000       1
H              -4.50715000     -5.68347000     -2.28087000       1
H              -7.37182000     -0.94773500      1.66712000       1
H               5.37235000      4.48832000      3.19071000       1
I               7.68067000      0.72906000      0.45133600      53
I              -0.88040500     -3.77581000     -6.70382000      53
H              -6.59176000     -2.69160000     -3.11257000       1
H               5.44370000     -4.54814000      3.19071000       1
N               6.10516000      3.75271000      3.20391000       7
N              -7.31405000     -0.91516500      2.70037000       7
H              -7.41994000     -1.44291000     -2.12404000       1
H              -7.33772000      0.09282050      2.96436000       1
C              -2.87864000     -6.70561000     -3.12637000       6
I              -0.95608000      5.19478000      5.97548000      53
H               1.47908000      7.59355000     -2.12404000       1
H               0.46185500      6.49451000     -4.70269000       1
H               6.64318000      3.22705000     -3.16409000       1
P              -3.35473000      7.32791000     -0.03574020      15
H              -2.67725000     -7.27402000     -2.21571000       1
I               3.63781000     -4.23193000     -5.86902000      53
C              -3.38467000     -6.65452000      3.17955000       6
C               0.46575200      7.38050000      3.34117000       6
H               6.70964000      3.92255000      2.37337000       1
H              -3.97762000     -6.75932000      2.26804000       1
N              -4.30478000     -6.28099000     -3.11239000       7
H               4.42716000     -5.72409000     -3.96194000       1
H              -4.54320000     -5.72409000     -3.96194000       1
N               0.64225400      7.26089000     -4.02764000       7
I              -5.92961000      0.26093500     -5.84463000      53
H               1.27776000     -1.11518000      8.16527000       1
P              -7.86460000      2.81687000      0.03086880      15
C              -7.55742000     -2.27893000     -2.81175000       6
I              -7.29223000      2.59885000      3.20979000      53
H              -0.47712300      7.81238000      2.99793000       1
I               3.56646000      4.80453000     -5.86902000      53
H               1.52720000      8.08873000      1.66712000       1
I              -1.21834000     -8.30740000      0.45133600      53
H               0.52888100     -2.60781000      7.97661000       1
H               0.63659300     -1.48637000     -8.25499000       1
N               4.66559000     -6.28099000     -3.11239000       7
H              -2.57025000     -7.38236000      3.19101000       1
H              -0.29163100      7.64350000     -3.76903000       1
P               5.53954000     -1.68808000     -6.27204000      15
I              -2.79719000      7.44818000     -3.15921000      53
I              -0.95175500      5.26065000     -6.70382000      53
P               5.53521000     -1.75395000      6.40726000      15
H               2.52017000      7.74754000      2.97298000       1
N               1.58497000      8.12130000      2.70037000       7
H               4.99275000     -6.75932000      2.26804000       1
H               0.56091800      7.48423000      4.42430000       1
H               4.03627000     -7.10039000     -3.07065000       1
N               6.17651000     -5.28375000      3.20391000       7
H               6.67927000      3.90911000      4.05626000       1
H              -2.71057000     -7.32609000     -4.00926000       1
H               6.78099000     -5.11391000      2.37337000       1
I               3.63349000     -4.29780000      6.81027000      53
I              -4.02121000      7.18504000      3.21391000      53
H              -4.01604000     -6.77450000      4.06290000       1
N               0.70928000     -1.84143000      8.65165000       7
I               8.10967000     -3.79619000      0.52100400      53
P               1.16164000     -6.25166000     -6.33403000      15
H              -7.68829000     -1.04932000     -4.51403000       1
I              -5.33256000     -4.23193000     -5.86902000      53
P               1.15732000     -6.31752000      6.34526000      15
I               3.56214000      4.73866000      6.81027000      53
H              -0.22460400     -1.45882000      8.91026000       1
H              -8.17754000     -3.05145000     -2.35174000       1
I              -5.93393000      0.19507100      6.83466000      53
H               8.56460000     -1.22408000      2.99793000       1
H              -4.93410000     -7.10039000     -3.07065000       1
C              -8.43327000     -1.65596000      3.34117000       6
P               5.61564000      7.32791000     -0.03574020      15
C               5.58570000     -6.65452000      3.17955000       6
H               1.21073000      7.98715000     -4.51403000       1
H              -2.78625000      1.64451000      8.67003000       1
I               4.94915000      7.18504000      3.21391000      53
H              -8.36449000     -2.70661000      3.05082000       1
I              -5.40391000      4.80453000     -5.86902000      53
I               3.23567000     -8.73054000     -0.39100700      53
H               4.95433000     -6.77450000      4.06290000       1
I              -8.29973000      2.91041000     -3.14152000      53
N              -8.25676000     -1.77557000     -4.02764000       7
H               6.75062000     -5.12735000      4.05626000       1
H               6.71453000     -5.80941000     -3.16409000       1
C               0.54142700     -1.59010000     -9.33812000       6
H              -8.33810000     -1.55223000      4.42430000       1
H               1.70400000     -8.94364000      2.96436000       1
C               6.09173000     -6.70561000     -3.12637000       6
I               8.03832000      5.24027000      0.52100400      53
H               8.75009000     -1.39296000     -3.76903000       1
I              -5.33688000     -4.29780000      6.81027000      53
I               7.60187000      0.67763900      5.98800000      53
H              -6.66311000      6.34486000     -3.11257000       1
H               1.56130000      9.12928000      2.96436000       1
H              -0.40144800     -1.15822000     -9.68137000       1
H              -2.28677000      3.97498000     -8.62304000       1
H              -4.08307000      2.32782000     -8.61640000       1
I               3.09297000      9.34238000     -0.39100700      53
H               1.63697000      0.15868400     -9.71494000       1
I              -1.36105000      9.76552000      0.45133600      53
H               6.29312000     -7.27402000     -2.21571000       1
I              -5.40823000      4.73866000      6.81027000      53
H              -9.37614000     -1.22408000      2.99793000       1
P              -7.79325000     -6.21959000      0.03086880      15
I               0.66631700      2.84455000      9.53777000      53
I               1.68246000      2.66472000     -9.46951000      53
H              -8.43716000     -2.54195000     -4.70269000       1
H              -2.63728000      1.71997000     -9.48828000       1
H               0.61020700     -2.64075000     -9.62848000       1
H              -9.19065000     -1.39296000     -3.76903000       1
I              -2.73016000     -1.65414000      9.52008000      53
H               2.59584000     -1.22306000     -9.70631000       1
N               1.66064000     -0.84930100     -9.97893000       7
I               7.60619000      0.74350300     -6.69130000      53
H               4.88730000      2.32782000     -8.61640000       1
I               6.17318000      7.44818000     -3.15921000      53
I              -7.22088000     -6.43761000      3.20979000      53
