200
cutoff_factor=1.20000000 nneightol=1.20000000 Lattice="28.31628000       0.00000000       0.00000000       0.00000000      28.31305000       0.00000000       0.00000000       0.00000000      29.40432000" Properties=species:S:1:pos:R:3:Z:I:1
I               0.04540840      0.03214230     -0.00120187      53
H              -2.14484000     -1.34414000      1.79699000       1
P               2.70738000     -1.71844000     -0.02129590      15
P              -1.65983000      2.77711000     -0.01070310      15
H              -1.25923000     -2.35008000     -2.28128000       1
H              -2.14067000     -0.12497400      2.95106000       1
H              -2.63940000     -1.20700000     -2.37123000       1
H               1.67241000      1.55252000      2.99003000       1
H              -0.76009600     -0.43189300     -3.68523000       1
N              -2.33167000     -1.13661000      2.79733000       7
H              -0.42369300     -1.76721000      3.44532000       1
H               2.62683000      2.25860000     -1.80924000       1
H               1.28004000      2.38605000     -2.82382000       1
C              -2.02718000     -1.91994000     -2.92838000       6
H               2.44507000      1.18926000     -3.08048000       1
N               2.29846000      2.17846000     -2.79138000       7
I              -1.38284000      2.70713000     -3.19970000      53
C              -1.46949000     -1.98535000      3.67343000       6
N              -1.35392000     -1.19437000     -4.04267000       7
I              -1.77656000      2.50540000      3.20153000      53
I               2.81266000     -1.43978000     -3.21363000      53
I               0.99100400     -4.42892000      0.11047800      53
I              -4.42674000      1.04997000     -0.00075562      53
I               4.49685000      1.04997000     -0.00075562      53
I               1.06514000      4.49559000      0.11047800      53
I               2.92188000     -1.66213000      3.19859000      53
H              -3.34025000     -1.31913000      2.97622000       1
C               2.31439000      2.21599000      3.57413000       6
H               2.48173000      3.60588000      2.01113000       1
H               3.66538000      2.44232000      1.98590000       1
H              -1.69525000     -3.03446000      3.46907000       1
I              -3.52003000     -3.49886000      0.03972250      53
H              -0.77111100     -1.84513000     -4.61532000       1
H              -2.65203000     -2.70773000     -3.35549000       1
N               3.11393000      3.05030000      2.62956000       7
H              -2.05303000     -0.77169700     -4.69236000       1
H              -1.69149000     -1.74341000      4.71530000       1
H               1.71007000      2.87897000      4.19458000       1
H               3.00285000      1.63444000      4.19010000       1
C               3.05099000      3.10979000     -3.68192000       6
H               2.88050000      4.13204000     -3.33665000       1
H               3.75602000      3.69085000      3.11861000       1
H              -5.25821000      2.44232000      1.98590000       1
H               2.40759000     -5.31863000      2.01113000       1
H               2.68321000      2.98643000     -4.70305000       1
H               4.11293000      2.85961000     -3.62625000       1
P              -1.73397000     -6.14740000     -0.01070310      15
I              -3.44589000      5.42566000      0.03972250      53
I               5.40356000     -3.49886000      0.03972250      53
P              -6.21621000     -1.71844000     -0.02129590      15
H               5.58334000     -1.31913000      2.97622000       1
I               0.24611900      0.14834000      6.46713000      53
H               2.80636000     -4.79247000     -3.33665000       1
I               1.02086000      0.99139000     -6.49104000      53
H              -4.81067000      2.85961000     -3.62625000       1
H               6.28420000     -1.20700000     -2.37123000       1
H              -6.29677000      2.25860000     -1.80924000       1
I              -6.00172000     -1.66213000      3.19859000      53
H              -1.62111000      5.89005000      3.46907000       1
I              -6.11093000     -1.43978000     -3.21363000      53
H              -1.18509000      6.57443000     -2.28128000       1
N              -5.80967000      3.05030000      2.62956000       7
H              -5.16758000      3.69085000      3.11861000       1
N               3.03979000     -5.87421000      2.62956000       7
H               3.68188000     -5.23366000      3.11861000       1
H               6.77875000     -1.34414000      1.79699000       1
P              -1.69280000      2.65632000      6.41022000      15
I              -1.45698000     -6.21738000     -3.19970000      53
I               0.32173900     -3.42181000     -6.29423000      53
P               2.75751000     -1.77826000      6.42077000      15
H               1.20590000     -6.53846000     -2.82382000       1
P              -1.49110000      2.93608000     -6.44751000      15
N               6.59192000     -1.13661000      2.79733000       7
P               2.90805000     -1.55385000     -6.45806000      15
H              -6.47852000      1.18926000     -3.08048000       1
I              -3.43980000      0.37233900     -6.47721000      53
H               2.55269000     -6.66591000     -1.80924000       1
H               6.78292000     -0.12497400      2.95106000       1
I              -1.85069000     -6.41911000      3.20153000      53
H              -5.92074000      1.63444000      4.19010000       1
C               2.97685000     -5.81472000     -3.68192000       6
N              -6.62513000      2.17846000     -2.79138000       7
H              -2.57789000      6.21678000     -3.35549000       1
H               1.63593000     -6.04554000      4.19458000       1
C              -5.87260000      3.10979000     -3.68192000       6
H               6.27156000     -2.70773000     -3.35549000       1
N               2.22432000     -6.74605000     -2.79138000       7
H              -6.44186000      3.60588000      2.01113000       1
H               3.59124000     -6.48219000      1.98590000       1
I               5.47770000      5.42566000      0.03972250      53
P               2.78152000      7.20607000     -0.02129590      15
C               6.89641000     -1.91994000     -2.92838000       6
I               0.80881200     -4.34200000      6.39107000      53
P               7.26376000      2.77711000     -0.01070310      15
C              -6.60920000      2.21599000      3.57413000       6
C              -1.95304000      7.00457000     -2.92838000       6
I              -4.27911000      0.78836100      6.57405000      53
I               0.88295100      4.58251000      6.39107000      53
C               2.24025000     -6.70853000      3.57413000       6
H              -0.34955400      7.15730000      3.44532000       1
C              -1.39535000      6.93916000      3.67343000       6
H              -7.25118000      1.55252000      2.99003000       1
H               2.60907000     -5.93808000     -4.70305000       1
H              -5.24172000     -5.23366000      3.11861000       1
H              -6.04310000      4.13204000     -3.33665000       1
H              -2.07070000      7.58038000      1.79699000       1
I               4.64449000      0.78836100      6.57405000      53
H               1.59827000     -7.37199000      2.99003000       1
H               4.03879000     -6.06490000     -3.62625000       1
I               7.14704000      2.50540000      3.20153000      53
I              -3.65412000     -3.72295000      6.37724000      53
H               7.66436000     -2.35008000     -2.28128000       1
H               6.87056000     -0.77169700     -4.69236000       1
H              -6.24038000      2.98643000     -4.70305000       1
I               0.39587800      5.50270000     -6.29423000      53
H              -6.11723000     -4.79247000     -3.33665000       1
H              -2.56526000      7.71751000     -2.37123000       1
H              -0.69697200      7.07938000     -4.61532000       1
I               2.99602000      7.26238000      3.19859000      53
H              -7.64355000      2.38605000     -2.82382000       1
I               5.48380000      0.37233900     -6.47721000      53
C               7.45410000     -1.98535000      3.67343000       6
H               7.22834000     -3.03446000      3.46907000       1
N              -2.25753000      7.78790000      2.79733000       7
H              -1.99177000     -1.72791000      8.16523000       1
H              -4.88480000     -6.06490000     -3.62625000       1
I              -4.07663000     -4.06183000     -6.40115000      53
H              -5.33235000     -6.48219000      1.98590000       1
I               7.54075000      2.70713000     -3.19970000      53
I               2.88680000      7.48473000     -3.21363000      53
H              -6.51600000     -5.31863000      2.01113000       1
H               2.37094000     -7.73525000     -3.08048000       1
N               7.56967000     -1.19437000     -4.04267000       7
N              -5.88380000     -5.87421000      2.62956000       7
H              -1.61735000      7.18110000      4.71530000       1
H              -3.26611000      7.60538000      2.97622000       1
H               7.23210000     -1.74341000      4.71530000       1
N              -1.27978000      7.73014000     -4.04267000       7
H              -7.21352000      2.87897000      4.19458000       1
I              -8.87818000      0.03214230     -0.00120187      53
I              -0.02873070     -8.89237000     -0.00120187      53
H               2.92872000     -7.29008000      4.19010000       1
P              -1.56524000     -5.98843000     -6.44751000      15
I               0.11954700      8.95665000     -0.00120187      53
P              -6.01554000     -1.55385000     -6.45806000      15
H               8.16350000     -0.43189300     -3.68523000       1
I               8.96900000      0.03214230     -0.00120187      53
I              -3.57998000      5.20156000      6.37724000      53
I              -4.00249000      4.86268000     -6.40115000      53
I               4.84696000     -4.06183000     -6.40115000      53
I               4.42271000     -7.87454000     -0.00075562      53
I              -7.85845000      4.49559000      0.11047800      53
I              -4.50088000     -7.87454000     -0.00075562      53
I               5.26947000     -3.72295000      6.37724000      53
P              -6.16608000     -1.77826000      6.42077000      15
I              -7.93259000     -4.42892000      0.11047800      53
C              -5.94674000     -5.81472000     -3.68192000       6
P              -1.76693000     -6.26819000      6.41022000      15
H              -1.31989000     -2.57574000     -8.67818000       1
H               2.26971000      3.43847000      8.17592000       1
H              -2.61267000     -1.33120000     -8.67370000       1
H               2.98349000      2.97093000     -8.15298000       1
H              -0.68595700      8.49262000     -3.68523000       1
H               3.55164000      2.36504000      8.25296000       1
H               8.49990000     -1.76721000      3.44532000       1
H              -6.37090000     -6.66591000     -1.80924000       1
I               4.92110000      4.86268000     -6.40115000      53
H              -0.56205700     -1.85473000      9.24203000       1
P               7.18963000     -6.14740000     -0.01070310      15
C              -1.62400000     -1.60455000      9.18636000       6
P              -6.14207000      7.20607000     -0.02129590      15
H               6.34570000      6.21678000     -3.35549000       1
H              -2.06653000      8.79954000      2.95106000       1
H               8.15248000     -1.84513000     -4.61532000       1
H              -1.97889000      8.15281000     -4.69236000       1
C              -2.00836000     -1.99418000     -9.29415000       6
H              -1.79449000     -0.58230100      9.53163000       1
H              -2.21481000     -9.04949000      2.95106000       1
H               1.67072000      1.50244000      9.51279000       1
H              -0.56673300     -0.51931800     -9.74967000       1
N               2.96883000      3.01580000      8.82561000       7
I               5.34361000      5.20156000      6.37724000      53
H              -6.31452000     -5.93808000     -4.70305000       1
I              -5.92758000      7.26238000      3.19859000      53
N              -6.69927000     -6.74605000     -2.79138000       7
H               5.65748000      7.60538000      2.97622000       1
H               2.97973000      1.67988000     -9.39921000       1
H               7.30248000      5.89005000      3.46907000       1
P               2.83165000      7.14625000      6.42077000      15
P               7.23080000      2.65632000      6.41022000      15
I               7.07290000     -6.41911000      3.20153000      53
H               2.19558000     -5.48604000      8.17592000       1
H              -0.83423500     -9.35640000     -3.68523000       1
C               3.20550000      2.72899000     -9.19485000       6
H              -9.34728000     -1.76721000      3.44532000       1
C              -6.68334000     -6.70853000      3.57413000       6
H              -5.37196000      2.36504000      8.25296000       1
I              -6.03679000      7.48473000     -3.21363000      53
I              -1.78818000      2.77039000      9.65465000      53
I               2.82429000     -1.70477000     -9.66675000      53
