200
cutoff_factor=1.20000000 nneightol=1.20000000 Lattice="27.88722000       0.00000000       0.00000000       0.00000000      28.82232000       0.00000000       0.00000000       0.00000000      28.23749000" Properties=species:S:1:pos:R:3:Z:I:1
P              -1.27650000     -0.55391000     -1.40811000      15
I              -1.17432000     -0.77120400      1.76825000      53
I               1.52620000      1.10506000     -1.39729000      53
H               2.43712000     -0.28660000      0.53465800       1
H               2.16149000     -1.71194000      1.37618000       1
N               2.88367000     -1.01676000      1.13241000       7
H              -1.17495000      2.62481000      2.02546000       1
I               0.56393000     -3.40118000     -1.26180000      53
H               3.59181000     -1.48198000      0.52363000       1
I              -2.95437000      2.11471000     -1.54809000      53
H               2.72270000      0.06562620      2.93829000       1
H              -1.64064000     -3.43611000      1.73334000       1
C               3.50615000     -0.42085100      2.35342000       6
C              -1.04265000      3.65182000      2.37349000       6
H               2.48900000      0.36990000     -3.74883000       1
H               0.01550100      3.92338000      2.37005000       1
H              -1.38618000      4.49096000      0.47633600       1
H              -1.36155000     -4.50178000      0.47633600       1
H               4.25672000      0.30823500      2.03944000       1
I              -3.90909000     -2.39635000     -1.40306000      53
I              -1.07447000     -0.86447000     -4.59509000      53
N              -1.74366000     -4.42853000      1.44097000       7
H               1.54779000     -0.59342100     -4.72565000       1
H               3.97105000     -1.22263000      2.93169000       1
N              -1.76828000      4.56421000      1.44097000       7
P              -1.04411000     -0.59784100      4.96797000      15
H              -4.68688000      0.30823500      2.03944000       1
P               3.28847000      3.83046000     -1.42636000      15
H              -1.46403000      3.77250000      3.37410000       1
N               2.46642000     -0.11152200     -4.67155000       7
H              -2.78373000      4.33652000      1.42080000       1
I               1.05463000      1.75858000      4.95289000      53
H              -1.35693000      2.55782000     -4.57651000       1
H              -5.35180000     -1.48198000      0.52363000       1
I               3.54255000      3.95099000      1.74844000      53
H              -2.75911000     -4.65622000      1.42080000       1
H               0.04012190     -5.06936000      2.37005000       1
H              -0.48331600     -4.43470000     -3.43656000       1
H               3.56065000     -1.80585000     -4.04760000       1
H              -0.50793700      4.55804000     -3.43656000       1
I               5.03452000     -2.39635000     -1.40306000      53
I               0.53930900      5.59156000     -1.26180000      53
I               1.32835000     -2.72940000      5.01071000      53
H              -4.97256000     -1.22263000      2.93169000       1
C              -1.01803000     -5.34092000      2.37349000       6
C              -5.43745000     -0.42085100      2.35342000       6
H              -0.79405800     -3.49988000     -4.77995000       1
H               2.44641000      0.60356700     -5.42548000       1
H              -1.66526000      5.55663000      1.73334000       1
C               3.60815000     -1.05952000     -4.84336000       6
I              -3.42483000      1.49959000      4.97753000      53
N              -6.05994000     -1.01676000      1.13241000       7
C              -1.63683000      3.55460000     -4.92477000       6
P               3.31309000     -5.16228000     -1.42636000      15
N              -0.57001100     -4.46833000     -4.47445000       7
H              -1.43941000     -5.22024000      3.37410000       1
N              -0.59463100      4.52441000     -4.47445000       7
I               3.56717000     -5.04175000      1.74844000      53
H              -2.59613000      3.85337000     -4.49624000       1
H               0.34576300      4.29240000     -4.84960000       1
H              -4.40265000     -0.49420800     -4.78379000       1
H              -6.50648000     -0.28660000      0.53465800       1
I               5.98924000      2.11471000     -1.54809000      53
H               4.54095000     -0.49420800     -4.78379000       1
I              -3.11321000     -3.02553000      5.11207000      53
I               3.04822000      3.86631000     -4.60624000      53
H               0.37038300     -4.70034000     -4.84960000       1
H              -1.15033000     -6.36793000      2.02546000       1
H              -6.22091000      0.06562620      2.93829000       1
I              -5.40105000      3.95099000      1.74844000      53
H               3.51197000     -1.53803000     -5.82018000       1
H              -5.38295000     -1.80585000     -4.04760000       1
P              -5.65513000      3.83046000     -1.42636000      15
H              -6.78211000     -1.71194000      1.37618000       1
P               3.39431000      3.88590000      4.94009000      15
H              -1.68075000      3.58044000     -6.01582000       1
C              -5.33546000     -1.05952000     -4.84336000       6
H              -2.57151000     -5.13938000     -4.49624000       1
H              -0.81867800      5.49286000     -4.77995000       1
H              -6.45460000      0.36990000     -3.74883000       1
H               2.98334000     -0.84177400      6.81377000       1
C              -1.61221000     -5.43814000     -4.92477000       6
I               3.07284000     -5.12643000     -4.60624000      53
I              -5.37643000     -5.04175000      1.74844000      53
I               5.51877000      1.49959000      4.97753000      53
I              -7.41741000      1.10506000     -1.39729000      53
I              -2.92975000     -6.87803000     -1.54809000      53
H               6.15987000      4.33652000      1.42080000       1
H              -0.79217200      3.03249000      7.00942000       1
H               2.13687000      7.28080000      1.37618000       1
P              -5.63051000     -5.16228000     -1.42636000      15
I              -3.93371000      6.59639000     -1.40306000      53
P               7.66711000     -0.55391000     -1.40811000      15
H               6.18449000     -4.65622000      1.42080000       1
P               3.41893000     -5.10684000      4.94009000      15
I               1.16630000      1.39668000     -7.71753000      53
N              -6.47719000     -0.11152200     -4.67155000       7
I               7.76929000     -0.77120400      1.76825000      53
H              -1.33231000     -6.43492000     -4.57651000       1
P              -1.24516000     -0.68462700     -7.88951000      15
H              -5.43164000     -1.53803000     -5.82018000       1
I               1.30373000      6.26334000      5.01071000      53
I               1.55082000     -7.88769000     -1.39729000      53
H               7.30296000     -3.43611000      1.73334000       1
H              -1.65613000     -5.41230000     -6.01582000       1
I               5.83039000     -3.02553000      5.11207000      53
H               3.56719000      7.51076000      0.52363000       1
I              -1.23130000     -0.55590900      8.22335000      53
P              -5.54930000      3.88590000      4.94009000      15
I               5.00990000      6.59639000     -1.40306000      53
I              -5.89539000      3.86631000     -4.60624000      53
H               7.76866000      2.62481000      2.02546000       1
I              -3.13784000      5.96721000      5.11207000      53
I               0.87930700     -3.07094000     -7.85207000      53
H              -6.49720000      0.60356700     -5.42548000       1
I              -1.19894000      8.22154000      1.76825000      53
C               3.02726000     -0.86761600      7.90483000       6
H              -1.83311000     -3.81865000      7.40411000       1
N               2.85905000      7.97598000      1.13241000       7
N               7.19995000     -4.42853000      1.44097000       7
H               2.06796000     -0.56885100      8.33336000       1
N               7.17533000      4.56421000      1.44097000       7
P              -1.30112000      8.43883000     -1.40811000      15
I              -3.33574000      1.69281000     -7.81888000      53
H               6.34748000      3.85337000     -4.49624000       1
C              -0.69599300      3.51101000      7.98624000       6
H              -7.39582000     -0.59342100     -4.72565000       1
H               7.55743000      4.49096000      0.47633600       1
H               7.58205000     -4.50178000      0.47633600       1
I               1.07926000     -7.23416000      4.95289000      53
H              -3.93376000     -0.12981300      7.97999000       1
H               3.53603000      7.18690000     -4.04760000       1
H               3.84541000      1.07064000      8.04965000       1
P              -5.52468000     -5.10684000      4.94009000      15
C               7.90096000      3.65182000      2.37349000       6
H               0.23681500      4.07632000      8.04580000       1
H               7.47958000      3.77250000      3.37410000       1
H               2.41250000      8.70614000      0.53465800       1
I              -5.87077000     -5.12643000     -4.60624000      53
H               3.30716000     -1.86440000      8.25308000       1
H              -5.96027000     -0.84177400      6.81377000       1
I              -3.58483000     -2.81195000     -7.87670000      53
I              -8.37968000     -3.40118000     -1.26180000      53
I               7.86913000     -0.86447000     -4.59509000      53
H               3.94643000      7.77011000      2.93169000       1
H              -1.85773000      5.17409000      7.40411000       1
H               7.58668000      2.55782000     -4.57651000       1
H              -0.76755100     -5.96025000      7.00942000       1
H              -0.74348600      2.76468000      8.78200000       1
H              -5.37642000      7.51076000      0.52363000       1
I               6.01386000     -6.87803000     -1.54809000      53
N               4.06946000      0.10219200      8.35515000       7
H               7.27834000      5.55663000      1.73334000       1
P               3.23541000      3.82438000     -7.86163000      15
H               6.37210000     -5.13938000     -4.49624000       1
P               7.89950000     -0.59784100      4.96797000      15
I              -1.09909000      8.12827000     -4.59509000      53
H               5.00985000     -0.12981300      7.97999000       1
H               0.26143600     -4.91642000      8.04580000       1
H              -2.75635000      3.97710000      8.10395000       1
N              -1.83772000      4.45900000      8.15804000       7
I              -7.88897000      1.75858000      4.95289000      53
C               7.30678000      3.55460000     -4.92477000       6
N              -1.81310000     -4.53374000      8.15804000       7
I              -7.61526000     -2.72940000      5.01071000      53
C               3.48153000      8.57189000      2.35342000       6
H              -5.09820000      1.07064000      8.04965000       1
H               2.46174000     -9.27934000      0.53465800       1
I              -3.40021000     -7.49315000      4.97753000      53
N              -4.87415000      0.10219200      8.35515000       7
H              -4.99718000      7.77011000      2.93169000       1
I               3.56500000      3.70606000      8.23450000      53
C              -0.67137200     -5.48173000      7.98624000       6
P              -1.25188000     -9.54665000     -1.40811000      15
H               2.51362000     -8.62284000     -3.74883000       1
H               7.50420000     -5.22024000      3.37410000       1
H               1.52317000      8.39932000     -4.72565000       1
I               5.80577000      5.96721000      5.11207000      53
I               5.60787000      1.69281000     -7.81888000      53
H               2.74732000     -8.92712000      2.93829000       1
P              -1.06873000      8.39490000      4.96797000      15
C               7.92558000     -5.34092000      2.37349000       6
H              -5.40757000      7.18690000     -4.04760000       1
I               0.85468600      5.92180000     -7.85207000      53
H               4.28134000     -8.68451000      2.03944000       1
H               2.69808000      9.05837000      2.93829000       1
H               2.84011000     -0.79802200     -9.45549000       1
C              -5.91635000     -0.86761600      7.90483000       6
H              -2.73173000     -5.01564000      8.10395000       1
I               5.35877000     -2.81195000     -7.87670000      53
P               3.26003000     -5.16837000     -7.86163000      15
C               3.58353000      7.93323000     -4.84336000       6
I              -1.14970000     -9.76395000      1.76825000      53
H              -8.92811000      3.92338000      2.37005000       1
H              -6.80673000      7.28080000      1.37618000       1
H               8.95911000      3.92338000      2.37005000       1
H              -4.66226000     -8.68451000      2.03944000       1
H               8.14955000     -3.49988000     -4.77995000       1
H               3.48735000      7.45471000     -5.82018000       1
H               7.26285000      3.58044000     -6.01582000       1
