200
cutoff_factor=1.20000000 nneightol=1.20000000 Lattice="28.32476000       0.00000000       0.00000000       0.00000000      28.86478000       0.00000000       0.00000000       0.00000000      29.34055000" Properties=species:S:1:pos:R:3:Z:I:1
P              -0.04672410      1.07934000     -0.72909100      15
I               0.35368800      0.70383500      2.44550000      53
I              -2.23701000     -1.25156000     -0.88607500      53
I               2.13392000     -1.20140000     -1.22571000      53
H               0.35279200     -2.94612000      0.75064900       1
H               0.30859800     -1.84861000      2.89540000       1
C              -0.12580500     -3.43551000      1.60162000       6
H              -1.20025000     -3.23858000      1.60128000       1
H              -0.77421900     -2.05503000     -3.15082000       1
I              -2.33048000      3.22229000     -0.16576700      53
I               2.18422000      3.33005000     -0.80095900      53
N               0.45390900     -2.87902000      2.85428000       7
H               3.60392000      1.52677000      1.28033000       1
I              -0.45619700      1.44922000     -3.95937000      53
H              -4.07166000      0.23697300      1.25257000       1
H               3.52542000      0.17790800      2.46068000       1
H               1.48406000     -3.02859000      2.87565000       1
H              -3.26250000      2.24790000      2.31793000       1
C               4.18687000      0.82949700      1.88555000       6
H               0.18236900      4.47084000      1.58112000       1
H               0.06497430     -4.51084000      1.58112000       1
N              -0.65793200     -2.69778000     -3.95611000       7
H              -3.34133000      0.98724100      3.45202000       1
H               1.19687000     -3.44651000     -3.29182000       1
H               3.02990000      1.11369000     -3.71500000       1
H               0.01908380     -3.32483000      3.69019000       1
H               4.85097000      0.23697300      1.25257000       1
N              -3.90107000      1.61659000      2.84066000       7
H               4.29109000      1.25020000     -2.44533000       1
C              -4.73577000      0.82949700      1.88555000       6
H              -0.24099300     -4.37395000     -2.74852000       1
H              -0.21803300     -2.18160000     -4.74752000       1
C               0.22076100     -3.84103000     -3.58276000       6
H              -2.96965000      1.50285000     -4.19767000       1
H              -0.12359800      4.60774000     -2.74852000       1
H              -4.63154000      1.25020000     -2.44533000       1
C               4.07265000      0.91055300     -3.46042000       6
H              -1.60622000     -3.03005000     -4.22336000       1
I               4.03737000     -2.97473000      2.43244000      53
H               4.28951000     -0.15540800     -3.56106000       1
P               4.35682000     -3.43438000     -0.75587000      15
H              -5.31871000      1.52677000      1.28033000       1
P               0.29704900      1.35310000      5.56225000      15
P              -4.56582000     -3.43438000     -0.75587000      15
C              -0.00841106      5.54617000      1.60162000       6
H              -4.63312000     -0.15540800     -3.56106000       1
H              -5.39721000      0.17790800      2.46068000       1
N               5.02156000      1.61659000      2.84066000       7
C              -4.84998000      0.91055300     -3.46042000       6
H               4.42172000      2.18440000      3.47525000       1
H              -1.08285000      5.74310000      1.60128000       1
I               2.06683000     -5.65164000     -0.80095900      53
H              -4.50091000      2.18440000      3.47525000       1
H               0.47018600      6.03557000      0.75064900       1
I              -2.54027000     -0.43042700      5.55931000      53
N              -3.97927000      1.65962000     -4.40573000       7
I              -4.88526000     -2.97473000      2.43244000      53
I              -2.44788000     -5.75939000     -0.16576700      53
C               0.33815600      5.14066000     -3.58276000       6
H               0.43590200      4.48349000     -4.44975000       1
H               0.31850800     -4.49819000     -4.44975000       1
H               5.66013000      2.24790000      2.31793000       1
H               1.31427000      5.53518000     -3.29182000       1
I               1.93790000     -1.39235000      6.12681000      53
H              -4.14793000      2.68596000     -4.33930000       1
I              -1.48860000      4.03070000      5.04451000      53
H               5.58130000      0.98724100      3.45202000       1
H               0.13647800      5.65685000      3.69019000       1
N               0.57130300      6.10267000      2.85428000       7
H               1.60146000      5.95310000      2.87565000       1
N               4.94336000      1.65962000     -4.40573000       7
I               6.68562000     -1.25156000     -0.88607500      53
I              -4.14517000     -3.77463000     -4.00099000      53
H              -4.15107000      1.35858000     -5.38405000       1
I               1.59154000     -1.56275000     -6.56658000      53
I               2.99636000      3.05850000      5.50365000      53
H               4.77471000      2.68596000     -4.33930000       1
I              -6.78871000     -1.20140000     -1.22571000      53
H              -5.89273000      1.11369000     -3.71500000       1
P              -4.44842000      5.54730000     -0.75587000      15
P               4.47421000      5.54730000     -0.75587000      15
P              -0.04931040      1.18270000     -7.13114000      15
I              -1.60600000     -4.95099000      5.04451000      53
I               4.77747000     -3.77463000     -4.00099000      53
H               4.77156000      1.35858000     -5.38405000       1
I               6.59215000      3.22229000     -0.16576700      53
H               5.95298000      1.50285000     -4.19767000       1
N              -0.54053700      6.28390000     -3.95611000       7
H              -1.48883000      5.95164000     -4.22336000       1
I              -6.73841000      3.33005000     -0.80095900      53
H              -0.65682400      6.92666000     -3.15082000       1
I               4.15477000      6.00695000      2.43244000      53
P              -4.31770000     -3.12786000      5.55839000      15
I              -4.02777000      5.20706000     -4.00099000      53
H               0.42599200      7.13308000      2.89540000       1
I              -2.88663000     -0.60082800     -7.13407000      53
P               4.60494000     -3.12786000      5.55839000      15
H              -3.37990000     -6.73378000      2.31793000       1
P              -0.16411800     -7.90235000     -0.72909100      15
I              -4.76787000      6.00695000      2.43244000      53
I              -2.11962000      7.73012000     -0.88607500      53
I               2.65000000      2.88810000     -7.18973000      53
I               4.89486000      5.20706000     -4.00099000      53
I               2.25131000      7.78028000     -1.22571000      53
H               0.12832700     -2.01120000      7.94586000       1
H              -0.10063900      6.80008000     -4.74752000       1
H               3.48653000     -7.45492000      1.28033000       1
H              -3.80471000      1.52898000      7.30933000       1
I               6.38237000     -0.43042700      5.55931000      53
H               7.72239000     -3.23858000      1.60128000       1
I              -0.57359100     -7.53247000     -3.95937000      53
H              -7.43857000     -3.02859000      2.87565000       1
I               2.87897000     -5.92318000      5.50365000      53
I               0.23629300     -8.27785000      2.44550000      53
I              -5.92627000      3.05850000      5.50365000      53
I               6.47476000     -5.75939000     -0.16576700      53
H              -4.26532000     -6.29573000     -4.33930000       1
I              -1.83496000      3.86030000     -7.64887000      53
H               4.30433000     -6.79729000      3.47525000       1
N              -4.01847000     -7.36510000      2.84066000       7
I              -0.10983700      1.61962000      8.73401000      53
I              -6.85581000     -5.65164000     -0.80095900      53
H              -4.61831000     -6.79729000      3.47525000       1
I              -8.56895000      0.70383500      2.44550000      53
P               4.25858000     -3.29826000     -7.13499000      15
H               4.65731000     -6.29573000     -4.33930000       1
P               8.87591000      1.07934000     -0.72909100      15
H               8.14842000     -2.05503000     -3.15082000       1
H               7.31641000     -3.03005000     -4.22336000       1
H               5.54274000     -6.73378000      2.31793000       1
H              -1.25986000     -2.85965000      8.47003000       1
H              -2.62329000      1.67325000      8.49571000       1
H               5.11792000      1.52898000      7.30933000       1
P              -8.96936000      1.07934000     -0.72909100      15
H              -7.72576000     -3.44651000     -3.29182000       1
H              -8.56984000     -2.94612000      0.75064900       1
P              -4.20030000      5.85383000      5.55839000      15
N              -0.31157200     -2.52738000      8.73727000       7
H              -3.08705000     -7.47884000     -4.19767000       1
H               4.17370000     -7.73149000     -2.44533000       1
P              -4.66406000     -3.29826000     -7.13499000      15
H               2.91251000     -7.86800000     -3.71500000       1
N              -3.63291000      1.83002000      8.28766000       7
H              -8.61404000     -1.84861000      2.89540000       1
N               4.90417000     -7.36510000      2.84066000       7
C               4.06947000     -8.15219000      1.88555000       6
H              -5.43611000     -7.45492000      1.28033000       1
H               0.66486800     -4.32779000      8.24363000       1
P               4.72233000      5.85383000      5.55839000      15
I               6.03601000     -0.60082800     -7.13407000      53
H              -3.45873000     -7.99445000      3.45202000       1
N              -8.46873000     -2.87902000      2.85428000       7
I              -6.98473000     -1.39235000      6.12681000      53
H              -4.74893000     -7.73149000     -2.44533000       1
I              -1.95236000     -5.12139000     -7.64887000      53
P               0.17965500     -7.62858000      5.56225000      15
I               8.46644000      1.44922000     -3.95937000      53
N              -4.09667000     -7.32207000     -4.40573000       7
H               0.78226200      4.65389000      8.24363000       1
N               8.26470000     -2.69778000     -3.95611000       7
C               8.79683000     -3.43551000      1.60162000       6
H              -3.80157000      2.85636000      8.35408000       1
I               9.27632000      0.70383500      2.44550000      53
C               3.95525000     -8.07113000     -3.46042000       6
H              -0.32727600     -3.49524000     -9.00320000       1
C              -4.85316000     -8.15219000      1.88555000       6
H               3.37626000      1.28409000      8.97839000       1
H              -0.42785900     -1.88463000      9.54256000       1
H               3.40803000     -8.80378000      2.46068000       1
I               2.53261000     -6.09358000     -7.18973000      53
H               9.27543000     -2.94612000      0.75064900       1
H              -4.18906000     -8.74471000      1.25257000       1
C              -9.04844000     -3.43551000      1.60162000       6
N               4.82597000     -7.32207000     -4.40573000       7
C               0.56712100     -3.67063000      9.11062000       6
I               7.43403000      4.03070000      5.04451000      53
H               7.83978000      5.74310000      1.60128000       1
H               9.23123000     -1.84861000      2.89540000       1
H              -7.32118000      5.95310000      2.87565000       1
H              -8.74027000      4.47084000      1.58112000       1
I              -7.33109000     -1.56275000     -6.56658000      53
I               2.05530000      7.58934000      6.12681000      53
H              -7.60837000      5.53518000     -3.29182000       1
I              -6.27263000      2.88810000     -7.18973000      53
H              -3.68769000      0.81684000     -9.24136000       1
I               0.47108200      9.68552000      2.44550000      53
N               5.28972000      1.83002000      8.28766000       7
H              -0.03776210     -2.01901000     -9.79799000       1
H               4.73358000     -8.74471000      1.25257000       1
I               1.70894000      7.41894000     -6.56658000      53
H              -8.85766000     -4.51084000      1.58112000       1
H               1.54323000     -3.27611000      9.40156000       1
P               0.07067020     10.06100000     -0.72909100      15
H              -4.28676000      0.01499280      9.13232000       1
C              -4.96738000     -8.07113000     -3.46042000       6
I              -6.04367000     -5.92318000      5.50365000      53
H               8.68164000     -4.37395000     -2.74852000       1
H              -3.95427000      9.21866000      1.25257000       1
P               4.37597000      5.68343000     -7.13499000      15
I              -3.79881000     -3.60423000      8.69239000      53
