200
cutoff_factor=1.20000000 nneightol=1.20000000 Lattice="27.83396000       0.00000000       0.00000000       0.00000000      27.96573000       0.00000000       0.00000000       0.00000000      29.76290000" Properties=species:S:1:pos:R:3:Z:I:1
I              -0.11732700     -0.11573300      0.14437800      53
H               1.39192000      0.84599700      1.96299000       1
P              -2.75747000      1.63917000     -0.02156890      15
H               2.02458000      0.62415000     -2.41065000       1
P               1.55187000     -2.82860000     -0.02277080      15
H               0.92153000      2.03838000     -2.34975000       1
C               1.37512000      1.28128000     -2.99358000       6
N               2.04973000      1.44232000      2.51246000       7
H               0.60267300      0.70057500     -3.50307000       1
H               2.44335000      2.12927000      1.83237000       1
H               2.82917000      0.86073300      2.85475000       1
H               0.52390000      2.72640000      3.20759000       1
H              -1.66851000     -1.97472000     -3.37922000       1
C               1.34188000      2.13762000      3.62907000       6
I               4.35369000     -1.01959000      0.03967190      53
I              -1.06003000      4.43739000     -0.02891630      53
H              -2.80489000     -1.49491000      3.27990000       1
I              -2.77137000      1.75874000     -3.18842000      53
I               1.85835000     -2.73266000     -3.18561000      53
H               0.95533400      1.38269000      4.31485000       1
I               1.82766000     -2.86108000      3.17684000      53
H              -1.54007000     -2.76202000      3.41320000       1
I              -4.56329000     -1.01959000      0.03967190      53
I              -1.15930000     -4.54548000     -0.02891630      53
H              -3.61009000     -2.31756000     -1.94454000       1
I              -2.94636000      1.85333000      3.18091000      53
I               3.45380000      3.47560000     -0.07020170      53
H              -2.67009000     -3.69765000     -1.99380000       1
N               2.20374000      1.97153000     -4.02302000       7
H              -3.24588000     -3.36918000      1.82375000       1
C              -2.58558000     -2.51319000      3.60906000       6
N              -3.27573000     -3.07957000     -2.57428000       7
C              -2.53075000     -2.53597000     -3.74649000       6
H               2.95872000      2.52516000     -3.59114000       1
H               2.05599000      2.78767000      4.13785000       1
H               2.64547000      1.27948000     -4.66808000       1
H               1.61066000      2.59245000     -4.61663000       1
N              -3.44866000     -3.45622000      2.83672000       7
H              -3.20048000     -1.88158000     -4.30922000       1
H              -2.20458000     -3.37295000     -4.36823000       1
H              -2.81251000     -2.62873000      4.67117000       1
H               5.30689000     -2.31756000     -1.94454000       1
H              -4.11188000     -3.60233000     -2.88020000       1
H              -2.57082000      5.28522000     -1.99380000       1
H              -4.45787000     -3.24541000      2.98443000       1
H               4.45912000     -3.24541000      2.98443000       1
H              -3.27269000     -4.44469000      3.10996000       1
H              -3.17342000      4.53817000      3.10996000       1
P               1.65114000      6.15427000     -0.02277080      15
P               6.15952000      1.63917000     -0.02156890      15
I              -0.29623000     -0.22182900      6.37641000      53
I              -0.65202900     -0.71419300     -6.32219000      53
I               3.35453000     -5.50727000     -0.07020170      53
I              -5.46318000      3.47560000     -0.07020170      53
H               4.80510000     -3.60233000     -2.88020000       1
H              -3.14661000      5.61369000      1.82375000       1
H              -6.08782000      0.86073300      2.85475000       1
H               5.67111000     -3.36918000      1.82375000       1
N               5.64125000     -3.07957000     -2.57428000       7
I               5.97063000      1.85333000      3.18091000      53
H               0.42463000     -6.25647000      3.20759000       1
H              -6.47364000      2.12927000      1.83237000       1
N              -3.34939000      5.52664000      2.83672000       7
N               5.46833000     -3.45622000      2.83672000       7
H               6.11210000     -1.49491000      3.27990000       1
P              -2.54302000      1.82079000     -6.41078000      15
I               6.14561000      1.75874000     -3.18842000      53
P               1.65069000     -2.74238000      6.40298000      15
I               1.92693000      6.12179000      3.17684000      53
P               1.81018000     -2.68013000     -6.40848000      15
N              -3.17646000      5.90330000     -2.57428000       7
P              -2.81381000      1.73956000      6.40529000      15
H              -1.44080000      6.22085000      3.41320000       1
I               1.95762000      6.25020000     -3.18561000      53
H              -4.01261000      5.38053000     -2.88020000       1
H              -6.89240000      0.62415000     -2.41065000       1
I               0.03351630      3.70676000     -6.32198000      53
H               0.82226000     -6.94449000     -2.34975000       1
H              -5.95826000      2.52516000     -3.59114000       1
H               5.71650000     -1.88158000     -4.30922000       1
H              -2.10531000      5.60991000     -4.36823000       1
N              -6.86725000      1.44232000      2.51246000       7
H               2.34407000     -6.85359000      1.83237000       1
I               3.77037000     -0.11974200     -6.46667000      53
H               6.24689000     -3.69765000     -1.99380000       1
H               1.95672000     -6.19519000      4.13785000       1
C               6.33140000     -2.51319000      3.60906000       6
I              -0.85362600      4.29995000      6.34710000      53
H              -3.51082000      6.66530000     -1.94454000       1
I               4.22723000     -0.85641500      6.49178000      53
H              -4.35859000      5.73746000      2.98443000       1
C              -2.48631000      6.46968000      3.60906000       6
H              -7.52507000      0.84599700      1.96299000       1
C               6.38624000     -2.53597000     -3.74649000       6
I              -5.56245000     -5.50727000     -0.07020170      53
H               5.64429000     -4.44469000      3.10996000       1
H               4.90437000      5.38053000     -2.88020000       1
C              -2.43148000      6.44690000     -3.74649000       6
C               1.24261000     -6.84525000      3.62907000       6
P              -2.85674000     -7.34370000     -0.02156890      15
P              -7.36511000     -2.82860000     -0.02277080      15
H               4.55839000      5.73746000      2.98443000       1
H              -6.27151000      1.27948000     -4.66808000       1
H               2.85945000     -6.45770000     -3.59114000       1
H              -1.56924000      7.00814000     -3.37922000       1
I              -0.95289600     -4.68291000      6.34710000      53
H               5.74356000      4.53817000      3.10996000       1
H               1.51139000     -6.39042000     -4.61663000       1
I              -4.68975000     -0.85641500      6.49178000      53
N              -6.71324000      1.97153000     -4.02302000       7
H               6.10447000     -2.62873000      4.67117000       1
N               1.95046000     -7.54054000      2.51246000       7
I              -7.05863000     -2.73266000     -3.18561000      53
C              -7.54187000      1.28128000     -2.99358000       6
I              -0.06575390     -5.27611000     -6.32198000      53
H               7.24847000     -1.97472000     -3.37922000       1
H               5.77038000      5.61369000      1.82375000       1
I              -5.14661000     -0.11974200     -6.46667000      53
I              -7.08932000     -2.86108000      3.17684000      53
I               3.64096000      3.70550000      6.49158000      53
H              -2.71324000      6.35414000      4.67117000       1
N               5.56760000      5.52664000      2.83672000       7
N               2.10447000     -7.01133000     -4.02302000       7
C               1.27585000     -7.70158000     -2.99358000       6
I              -3.04563000     -7.12953000      3.18091000      53
I              -2.87064000     -7.22413000     -3.18842000      53
H               1.29264000     -8.13687000      1.96299000       1
H              -6.86099000      2.78767000      4.13785000       1
H               6.34616000      5.28522000     -1.99380000       1
H              -7.99545000      2.03838000     -2.34975000       1
H               1.91076000      1.93444000     -8.14259000       1
H               7.37691000     -2.76202000      3.41320000       1
H              -2.70562000      7.48796000      3.27990000       1
N               5.74052000      5.90330000     -2.57428000       7
C              -7.57510000      2.13762000      3.62907000       6
H               6.71240000     -3.37295000     -4.36823000       1
H               2.08841000      1.04674000      8.44554000       1
H               0.85606400     -7.60018000      4.31485000       1
H               5.40617000      6.66530000     -1.94454000       1
I               8.79965000     -0.11573300      0.14437800      53
H              -3.10121000      7.10129000     -4.30922000       1
I              -0.01805700      8.86713000      0.14437800      53
H               1.92531000     -8.35872000     -2.41065000       1
I               4.42704000      4.34134000     -6.43735000      53
H               1.09250000      2.53812000      8.50454000       1
I              -4.48994000      4.34134000     -6.43735000      53
H              -3.11260000     -1.97072000      8.19713000       1
I               7.75768000     -4.54548000     -0.02891630      53
H               0.50340300     -8.28229000     -3.50307000       1
P               6.10317000      1.73956000      6.40529000      15
H              -7.30632000      2.59245000     -4.61663000       1
I               7.85695000      4.43739000     -0.02891630      53
H              -2.07780000     -3.28369000      8.14569000       1
H               2.72990000     -8.12213000      2.85475000       1
I              -9.03431000     -0.11573300      0.14437800      53
I               4.32777000     -4.64153000     -6.43735000      53
H              -8.31431000      0.70057500     -3.50307000       1
I               3.54168000     -5.27736000      6.49158000      53
I              -0.21659800     -9.09860000      0.14437800      53
H              -2.23699000     -1.63202000     -8.67591000       1
P               1.74996000      6.24049000      6.40298000      15
I               4.45296000      7.96328000      0.03967190      53
I              -4.46402000      7.96328000      0.03967190      53
I              -5.27603000      3.70550000      6.49158000      53
H              -7.96165000      1.38269000      4.31485000       1
I              -4.58921000     -4.64153000     -6.43735000      53
P               1.90946000      6.30273000     -6.40848000      15
P               6.37396000      1.82079000     -6.41078000      15
H               2.54620000     -7.70339000     -4.66808000       1
H              -8.39308000      2.72640000      3.20759000       1
C               1.76224000      1.88373000      9.06727000       6
N              -2.51953000     -2.59164000      8.79074000       7
P               6.06025000     -7.34370000     -0.02156890      15
P              -7.26584000      6.15427000     -0.02277080      15
H              -6.05753000     -6.45770000     -3.59114000       1
H              -1.76455000     -2.03801000      9.22262000       1
H              -3.33765000     -3.03701000     -8.49891000       1
C               2.13769000      2.04998000     -9.20471000       6
H              -6.57291000     -6.85359000      1.83237000       1
I               5.87136000     -7.12953000      3.18091000      53
C               6.43067000      6.46968000      3.60906000       6
H               1.45058000      0.11847900     -9.70381000       1
I              -6.99005000      6.12179000      3.17684000      53
H               6.81167000      5.60991000     -4.36823000       1
I              -6.95936000      6.25020000     -3.18561000      53
C               6.48551000      6.44690000     -3.74649000       6
C              -2.95111000     -2.28208000     -9.18470000       6
H               0.26540300      1.31776000     -9.82934000       1
P              -7.10680000     -2.68013000     -6.40848000      15
I              -5.37530000     -5.27736000      6.49158000      53
I               6.04634000     -7.22413000     -3.18842000      53
P              -2.64229000     -7.16207000     -6.41078000      15
H               0.18110500      0.81736100      9.93356000       1
H               6.20374000      6.35414000      4.67117000       1
P              -7.26629000     -2.74238000      6.40298000      15
I              -2.36605000      1.70209000     -9.63693000      53
H               3.18320000      1.80115000     -9.40056000       1
H               2.62447000      2.44497000      9.43454000       1
P              -2.91308000     -7.24330000      6.40529000      15
I               1.67764000     -2.56636000     -9.63285000      53
