200
cutoff_factor=1.20000000 nneightol=1.20000000 Lattice="28.78107000       0.00000000       0.00000000       0.00000000      27.91895000       0.00000000       0.00000000       0.00000000      28.44579000" Properties=species:S:1:pos:R:3:Z:I:1
H               1.47272000     -0.07186240     -1.72000000       1
I               2.31111000     -0.06513250      1.01533000      53
H              -0.61686600     -1.14279000     -2.38556000       1
I              -2.12248000     -0.81234700      1.60465000      53
C               1.03598000      0.12254400     -2.69993000       6
H               0.43005600      1.03003000     -2.67788000       1
H               0.97169600      2.79271000      1.10353000       1
N               0.15465400     -1.02611000     -3.05994000       7
I              -1.28430000      2.83707000     -1.05116000      53
P               0.57843700     -2.17522000      2.59768000      15
H               0.71449800     -1.90230000     -3.13176000       1
H               1.81959000      0.20683900     -3.45638000       1
P              -3.85510000      1.29784000      0.02228280      15
H               0.55759700      2.18109000      3.39893000       1
H              -0.26683800     -0.87627300     -4.00436000       1
N               1.12292000      3.49873000      1.85075000       7
H              -0.77185800      3.18145000      2.72569000       1
I               0.34263700     -4.26841000      0.07918550      53
C               0.27540400      3.17176000      3.03614000       6
H               2.13447000      3.47952000      2.09274000       1
I              -3.79425000     -0.53268600     -2.61734000      53
H               0.88666800      4.43112000      1.45793000       1
I               3.12381000      3.48825000     -1.58120000      53
H              -2.29893000     -4.35727000      0.52670400       1
H              -3.87569000     -3.05857000     -0.77929900       1
P               5.01197000      1.29784000      0.02228280      15
H              -3.46100000     -3.66966000      1.51614000       1
I               0.63906300     -0.34473100      5.23731000      53
H              -2.96036000     -0.80556600      4.34016000       1
H               3.66169000     -4.05802000     -0.10516700       1
H               0.45244600      3.92583000      3.80628000       1
N              -3.31040000     -4.37599000      0.76908000       7
P               0.44374700      4.97972000     -2.64121000      15
H              -2.61396000      2.41611000     -4.40082000       1
I               5.07282000     -0.53268600     -2.61734000      53
C              -4.15824000     -4.04898000     -0.41606600       6
I              -4.09106000      3.39103000      2.54075000      53
H               4.99138000     -3.05857000     -0.77929900       1
I               2.25717000     -3.77405000     -4.03295000      53
I               3.14913000     -3.71446000      3.67131000      53
I               0.63908900      3.15570000     -5.24013000      53
I              -1.30977000     -4.36574000      4.20102000      53
C               4.70883000     -4.04898000     -0.41606600       6
H               3.81691000      0.26531700      5.00520000       1
H              -3.98191000     -4.80340000     -1.18604000       1
I              -2.17637000     -4.60409000     -3.82447000      53
I               4.77601000      3.39103000      2.54075000      53
C              -3.39738000     -1.00000000      5.31995000       6
I              -1.30975000     -0.86531000     -6.27642000      53
H              -3.54689000     -5.30816000      1.16225000       1
P               0.44378500     -6.02145000     -2.64121000      15
H              -5.20538000     -4.05802000     -0.10516700       1
I              -6.55596000     -0.06513250      1.01533000      53
C              -3.39735000      2.50043000     -5.15749000       6
H               4.16660000      3.49923000     -3.85334000       1
H              -2.61399000     -1.08433000      6.07662000       1
H               5.40607000     -3.66966000      1.51614000       1
H              -4.00327000      1.59294000     -5.17973000       1
I               0.34259900      6.73275000      0.07918550      53
H               0.88670700     -6.57005000      1.45793000       1
H              -3.54693000      5.69301000      1.16225000       1
I              -5.74326000      3.48825000     -1.58120000      53
H              -4.00329000     -1.90749000      5.29771000       1
H              -3.71898000      1.02483000      5.75171000       1
H               4.88516000     -4.80340000     -1.18604000       1
P              -3.98980000     -2.35671000     -5.21628000      15
I               6.74459000     -0.81234700      1.60465000      53
H              -4.70047000      3.49923000     -3.85334000       1
H              -2.29897000      6.64390000      0.52670400       1
N              -4.27880000      0.14864100      5.67976000       7
N               5.55667000     -4.37599000      0.76908000       7
H              -5.05016000      0.26531700      5.00520000       1
H               4.86380000      1.59294000     -5.17973000       1
N               4.58827000      0.14864100      5.67976000       7
H              -2.96034000      2.69487000     -6.13728000       1
H               5.90671000     -0.80556600      4.34016000       1
N              -4.27878000      3.64907000     -4.79768000       7
H               4.86378000     -1.90749000      5.29771000       1
N              -3.31044000      6.62518000      0.76908000       7
H              -3.98195000      6.19777000     -1.18604000       1
I               3.14915000     -0.21402500     -6.80613000      53
P               4.87727000     -2.35671000     -5.21628000      15
H              -3.71895000      4.52526000     -4.72574000       1
N               4.58829000      3.64907000     -4.79768000       7
I              -2.17643000      2.89664000      6.65297000      53
H               0.45251000     -3.57490000     -6.67116000       1
H              -7.39435000     -0.07186240     -1.72000000       1
H               5.32018000     -5.30816000      1.16225000       1
H               3.81694000      3.76575000     -5.47224000       1
C               5.46969000     -1.00000000      5.31995000       6
I              -5.71794000     -3.71446000      3.67131000      53
I              -2.17641000      6.39707000     -3.82447000      53
I               2.25711000      3.72668000      6.44449000      53
H               5.14809000      1.02483000      5.75171000       1
N               1.12296000     -7.50244000      1.85075000       7
H              -0.26686400     -4.37671000      6.47308000       1
H               4.16657000     -0.00120442      6.62410000       1
H               3.66165000      6.94314000     -0.10516700       1
H              -7.04748000      0.20683900     -3.45638000       1
H              -6.73260000      3.47952000      2.09274000       1
H               5.32014000      5.69301000      1.16225000       1
H               6.56814000     -4.35727000      0.52670400       1
C               5.46972000      2.50043000     -5.15749000       6
I              -1.30981000      6.63542000      4.20102000      53
H               1.81956000     -3.29359000      7.02106000       1
H               4.88512000      6.19777000     -1.18604000       1
P               0.44372100      1.47928000      7.83623000      15
P               0.57846300      1.32521000     -7.87976000      15
H               6.25311000      2.41611000     -4.40082000       1
H               0.45248400     -7.07533000      3.80628000       1
H               2.13451000     -7.52164000      2.09274000       1
C              -4.15828000      6.95219000     -0.41606600       6
H              -4.70049000     -0.00120442      6.62410000       1
I               7.58277000      2.83707000     -1.05116000      53
H               0.43003000     -2.47040000      7.79956000       1
H              -3.46104000      7.33150000      1.51614000       1
C              -7.83109000      0.12254400     -2.69993000       6
I               3.12385000     -7.51291000     -1.58120000      53
H              -0.77181900     -7.81971000      2.72569000       1
H               5.14812000      4.52526000     -4.72574000       1
I              -1.28426000     -8.16410000     -1.05116000      53
H               0.97173500     -8.20846000      1.10353000       1
H              -5.05013000      3.76575000     -5.47224000       1
P              -3.98987000      5.14402000      5.26116000      15
C               0.27544200     -7.82940000      3.03614000       6
C               4.70879000      6.95219000     -0.41606600       6
H              -7.89537000      2.79271000      1.10353000       1
C               1.03595000     -3.37789000      7.77751000       6
I               2.25713000      7.22712000     -4.03295000      53
C               0.27546800     -4.32897000     -7.44130000       6
I              -6.60990000     -3.77405000     -4.03295000      53
H               8.25020000     -1.14279000     -2.38556000       1
H              -5.20542000      6.94314000     -0.10516700       1
N               5.55663000      6.62518000      0.76908000       7
N               0.15462800     -4.52654000      7.41750000       7
N              -7.74415000      3.49873000      1.85075000       7
I               3.14909000      7.28671000      3.67131000      53
H               6.25308000     -1.08433000      6.07662000       1
P              -3.98983000     -5.85715000      5.26116000      15
P               4.87720000      5.14402000      5.26116000      15
H              -3.71891000     -6.47591000     -4.72574000       1
H              -3.87573000      7.94260000     -0.77929900       1
H               0.55766200     -5.31965000     -7.07851000       1
I              -5.71792000     -0.21402500     -6.80613000      53
H              -0.77179300     -4.31928000     -7.75175000       1
H              -8.43701000      1.03003000     -2.67788000       1
H               5.90673000      2.69487000     -6.13728000       1
H              -8.15257000     -1.90230000     -3.13176000       1
P              -8.28863000     -2.17522000      2.59768000      15
I               6.69070000     -4.60409000     -3.82447000      53
I              -4.09102000     -7.61013000      2.54075000      53
H               0.55762300      5.68152000     -7.07851000       1
H               8.09521000      3.18145000      2.72569000       1
H               0.71447200     -5.40273000      7.34568000       1
P               0.57839900      8.82594000      2.59768000      15
H               5.40603000      7.33150000      1.51614000       1
H              -8.30947000      2.18109000      3.39893000       1
H              -7.98040000      4.43112000      1.45793000       1
P               4.87724000     -5.85715000      5.26116000      15
H               0.71443400      5.59843000      7.34568000       1
H              -0.26690200      6.62446000      6.47308000       1
N              -8.71242000     -1.02611000     -3.05994000       7
I               4.77604000     -7.61013000      2.54075000      53
H              -0.61689200     -4.64323000      8.09188000       1
H               6.56810000      6.64390000      0.52670400       1
H               4.16664000     -7.50194000     -3.85334000       1
H               4.99134000      7.94260000     -0.77929900       1
I               3.12378000     -0.01217970      8.89624000      53
I               0.63912800     -7.84546000     -5.24013000      53
H               0.55763600     -8.82008000      3.39893000       1
I              -2.12245000      2.68809000     -8.87279000      53
H               8.60023000     -0.87627300     -4.00436000       1
H               5.14815000     -6.47591000     -4.72574000       1
I              -8.52443000     -4.26841000      0.07918550      53
I              -1.28432000     -0.66336800      9.42628000      53
H               2.13453000     -4.02121000     -8.38470000       1
H               0.88673300     -3.06962000     -9.01951000       1
H               1.47269000     -3.57230000      8.75744000       1
N               1.12299000     -4.00201000     -8.62669000       7
N               9.02172000     -1.02611000     -3.05994000       7
I              -5.74322000     -7.51291000     -1.58120000      53
H              -3.46097000     -0.16922900     -8.96130000       1
I              -3.79427000     -4.03312000      7.86010000      53
C              -8.59167000      3.17176000      3.03614000       6
H               0.71446000      9.09887000     -3.13176000       1
H              -4.70043000     -7.50194000     -3.85334000       1
I               7.55730000     -4.36574000      4.20102000      53
H               9.29713000      1.03003000     -2.67788000       1
I              -8.22801000     -0.34473100      5.23731000      53
N              -4.27874000     -7.35209000     -4.79768000       7
I              -4.09100000     -4.10970000     -7.93669000      53
H               3.81698000     -7.23542000     -5.47224000       1
H              -9.48394000     -1.14279000     -2.38556000       1
N               0.15459000      6.47462000      7.41750000       7
I               7.55732000     -0.86531000     -6.27642000      53
I               6.69064000      2.89664000      6.65297000      53
N               4.58833000     -7.35209000     -4.79768000       7
I              -6.60996000      3.72668000      6.44449000      53
I              -5.71798000      7.28671000      3.67131000      53
I               2.25714000     -7.27448000      6.44449000      53
