200
cutoff_factor=1.20000000 nneightol=1.20000000 Lattice="29.13049000       0.00000000       0.00000000       0.00000000      29.13828000       0.00000000       0.00000000       0.00000000      29.26555000" Properties=species:S:1:pos:R:3:Z:I:1
I              -0.99015000      0.48188400     -0.57976900      53
H               0.32799000     -1.20546000      1.31450000       1
H              -0.03279290     -0.52084300     -2.74220000       1
C               0.52569700     -1.94741000      2.08861000       6
P               0.87247300      3.13756000     -0.66219800      15
H               1.12879000     -2.76420000      1.68756000       1
H              -0.40975100     -2.33123000      2.50201000       1
N               1.29480000     -1.28999000      3.18503000       7
H               2.19027000     -0.90192200      2.83501000       1
H               0.73561500     -0.55164700      3.65956000       1
I               3.47184000      1.27957000     -0.84150700      53
N               0.08936220     -0.66249600     -3.76864000       7
P              -3.64985000     -1.39835000     -0.67993600      15
H              -2.08016000      2.37957000      2.46041000       1
H               0.35874500      0.25940500     -4.16034000       1
H              -3.52200000      1.83266000      1.54426000       1
I               2.62414000     -3.27604000     -0.89583200      53
I               1.26521000      3.24295000      2.51343000      53
H              -0.83968000     -0.92629600     -4.15032000       1
H               2.06253000     -1.39721000     -3.61855000       1
I              -1.77541000     -4.05871000     -0.44762300      53
C               1.11377000     -1.70996000     -4.06015000       6
H               0.78012800     -2.65235000     -3.61979000       1
C              -3.17150000      2.33376000      2.44873000       6
H               1.54517000     -1.97999000      3.92566000       1
I              -3.88041000     -1.39365000      2.51435000      53
I               0.89941100      2.95661000     -3.93505000      53
H              -3.54114000      1.81967000      3.33827000       1
I              -1.78732000      5.00906000     -0.44762300      53
P               5.15747000     -1.39835000     -0.67993600      15
I              -3.54622000     -1.37808000     -3.90434000      53
H              -2.40260000      3.54280000     -3.40162000       1
I              -5.33548000      1.27957000     -0.84150700      53
I              -0.86582600      0.44413500      5.49054000      53
H               1.20990000     -1.80743000     -5.14398000       1
H              -3.35084000      4.22954000      1.61222000       1
H              -4.30178000      2.05496000     -3.09489000       1
I               4.92691000     -1.39365000      2.51435000      53
N              -3.70183000      3.72610000      2.45347000       7
H               5.28532000      1.83266000      1.54426000       1
H               4.50554000      2.05496000     -3.09489000       1
H               4.06703000      3.71681000      2.43895000       1
P               0.88438800     -5.93022000     -0.66219800      15
H              -3.33892000     -4.83824000      1.61222000       1
H               3.64758000      2.83207000     -4.28007000       1
H              -3.36501000      4.22617000      3.30000000       1
H              -3.74315000      2.00007000     -4.70329000       1
N              -4.19536000      2.59458000     -3.98283000       7
C              -3.39805000      3.83286000     -3.74525000       6
I               2.61223000      5.79173000     -0.89583200      53
I               1.27712000     -5.82483000      2.51343000      53
H               5.26618000      1.81967000      3.33827000       1
H              -4.74029000      3.71681000      2.43895000       1
P               0.91677700      3.11591000      5.65524000      15
C               5.63582000      2.33376000      2.44873000       6
H              -3.90582000      4.42986000     -2.98425000       1
H               1.11687000      6.30358000      1.68756000       1
N               4.61196000      2.59458000     -3.98283000       7
I               5.26110000     -1.37808000     -3.90434000      53
H              -3.35310000     -4.84161000      3.30000000       1
H              -3.89390000     -4.63791000     -2.98425000       1
N               5.10549000      3.72610000      2.45347000       7
P              -3.51832000     -1.36343000      5.67777000      15
H              -2.39068000     -5.52498000     -3.40162000       1
I               3.53150000      1.27328000      5.82798000      53
N              -3.68992000     -5.34168000      2.45347000       7
I              -1.75685000     -4.10204000      5.46006000      53
I              -6.18318000     -3.27604000     -0.89583200      53
H               5.45648000      4.22954000      1.61222000       1
H               4.07894000     -5.35096000      2.43895000       1
I               2.59234000     -3.17383000      5.90988000      53
H               5.06417000      2.00007000     -4.70329000       1
H              -0.42166500      6.73655000      2.50201000       1
H              -3.33142000      4.38681000     -4.68445000       1
H               4.90150000      4.42986000     -2.98425000       1
H              -6.61705000     -0.90192200      2.83501000       1
C              -3.38613000     -5.23491000     -3.74525000       6
H              -5.15974000      2.83207000     -4.28007000       1
I              -2.01022000      1.36609000     -6.86502000      53
I               0.91132600     -6.11117000     -3.93505000      53
H               4.91342000     -4.63791000     -2.98425000       1
H               0.76821400      6.41543000     -3.61979000       1
H              -3.31951000     -4.68097000     -4.68445000       1
H              -2.06825000     -6.68821000      2.46041000       1
C               0.51378200      7.12037000      2.08861000       6
H               5.46840000     -4.83824000      1.61222000       1
H              -4.72838000     -5.35096000      2.43895000       1
H               6.72716000      2.37957000      2.46041000       1
I              -1.76876000      4.96574000      5.46006000      53
C               5.40927000      3.83286000     -3.74525000       6
H               5.44231000      4.22617000      3.30000000       1
I               2.44792000      0.43789100     -7.31484000      53
I              -1.05914000     -3.25457000     -6.94692000      53
H              -6.74479000     -1.39721000     -3.61855000       1
N               5.11740000     -5.34168000      2.45347000       7
P               0.68644600      3.17650000     -7.09713000      15
C              -3.15958000     -6.73402000      2.44873000       6
I               7.81717000      0.48188400     -0.57976900      53
P               5.28900000     -1.36343000      5.67777000      15
I              -5.27582000      1.27328000      5.82798000      53
H               0.31607500      7.86232000      1.31450000       1
H               5.45422000     -4.84161000      3.30000000       1
H               6.40472000      3.54280000     -3.40162000       1
I               7.03191000     -4.05871000     -0.44762300      53
P              -3.67386000     -1.41194000     -7.11966000      15
H              -3.51008000     -7.23512000      1.54426000       1
H               1.27113000     -0.15311500      8.09045000       1
H               1.53326000      7.08778000      3.92566000       1
N              -7.51252000     -1.28999000      3.18503000       7
P               0.92869100     -5.95187000      5.65524000      15
H              -7.67853000     -2.76420000      1.68756000       1
H               3.65950000     -6.23571000     -4.28007000       1
C               5.42119000     -5.23491000     -3.74525000       6
H               5.47590000      4.38681000     -4.68445000       1
C               1.10186000      7.35781000     -4.06015000       6
H              -7.26215000     -1.97999000      3.92566000       1
N               1.28288000      7.77779000      3.18503000       7
H               0.85940600     -2.53985000      8.07161000       1
P              -3.66176000      7.66943000     -0.67993600      15
I              -6.19509000      5.79173000     -0.89583200      53
P              -7.93485000      3.13756000     -0.66219800      15
I               3.48375000     -7.78820000     -0.84150700      53
I              -7.54211000      3.24295000      2.51343000      53
H               5.48781000     -4.68097000     -4.68445000       1
I               7.02000000      5.00906000     -0.44762300      53
H              -3.00678000      2.72041000      7.63092000       1
I              -0.97823500     -8.58589000     -0.57976900      53
H              -8.47933000     -1.20546000      1.31450000       1
N              -4.18345000     -6.47320000     -3.98283000       7
H              -0.55718600     -1.70786000      8.49483000       1
H              -3.52922000     -7.24811000      3.33827000       1
H               2.05061000      7.67056000     -3.61855000       1
I               2.58042000      5.89394000      5.90988000      53
C              -8.28162000     -1.94741000      2.08861000       6
H              -4.28986000     -7.01282000     -3.09489000       1
C              -7.69355000     -1.70996000     -4.06015000       6
H              -8.07171000     -0.55164700      3.65956000       1
P               5.13346000     -1.41194000     -7.11966000      15
N               4.62387000     -6.47320000     -3.98283000       7
H               4.51746000     -7.01282000     -3.09489000       1
H               2.17836000      8.16585000      2.83501000       1
I              -3.89232000      7.67413000      2.51435000      53
H              -0.04470770      8.54693000     -2.74220000       1
H               1.19799000      7.26034000     -5.14398000       1
I               3.35086000     -4.08371000     -7.28437000      53
N               0.40718900     -1.94535000      8.79207000       7
H               7.96764000     -0.92629600     -4.15032000       1
H               8.39757000     -2.33123000      2.50201000       1
H               5.29724000     -7.23512000      1.54426000       1
I              -1.07105000      5.81321000     -6.94692000      53
C               5.64774000     -6.73402000      2.44873000       6
H               6.41664000     -5.52498000     -3.40162000       1
C               1.20450000     -0.70706200      9.02965000       6
I              -6.21498000     -3.17383000      5.90988000      53
H              -5.14782000     -6.23571000     -4.28007000       1
H              -0.85159500      8.14148000     -4.15032000       1
H              -8.02719000     -2.65235000     -3.61979000       1
H               8.77453000     -0.52084300     -2.74220000       1
N               0.07744740      8.40528000     -3.76864000       7
P               0.69836100     -5.89128000     -7.09713000      15
P               5.14556000      7.66943000     -0.67993600      15
H              -8.84011000     -0.52084300     -2.74220000       1
H              -3.73123000     -7.06770000     -4.70329000       1
H               0.72370000      8.51613000      3.65956000       1
H               9.13531000     -1.20546000      1.31450000       1
I              -7.90791000      2.95661000     -3.93505000      53
I              -3.55814000      7.68970000     -3.90434000      53
H              -7.59742000     -1.80743000     -5.14398000       1
H              -8.44858000      0.25940500     -4.16034000       1
I               3.33894000      4.98406000     -7.28437000      53
I               4.91500000      7.67413000      2.51435000      53
I               1.04441000      3.14977000      8.87056000      53
I              -5.32357000     -7.78820000     -0.84150700      53
H               0.85166900     -0.30167900     -9.47490000       1
N              -8.71796000     -0.66249600     -3.76864000       7
H               5.27810000     -7.24811000      3.33827000       1
I              -3.30536000     -1.58332000      8.83985000      53
I              -1.00206000      9.54966000     -0.57976900      53
I               7.94149000      0.44413500      5.49054000      53
C              -3.10291000      2.81789000      8.71475000       6
H               2.19996000     -0.99712800      9.37329000       1
N               8.89668000     -0.66249600     -3.76864000       7
I              -6.35940000      0.43789100     -7.31484000      53
H              -3.05738000      2.55993000     -8.84924000       1
H               0.37066000     -8.80837000     -4.16034000       1
I               6.79710000      1.36609000     -6.86502000      53
C               9.33302000     -1.94741000      2.08861000       6
H               6.73907000     -6.68821000      2.46041000       1
I               7.05047000     -4.10204000      5.46006000      53
H               0.69673700     -0.11006500      9.79065000       1
I              -9.79747000      0.48188400     -0.57976900      53
H              -9.21707000     -2.33123000      2.50201000       1
H               0.67554600     -2.70818000     -9.43663000       1
I              -7.53020000     -5.82483000      2.51343000      53
H               5.07609000     -7.06770000     -4.70329000       1
H              -2.15416000      3.13064000      9.15635000       1
P              -7.92293000     -5.93022000     -0.66219800      15
H              -3.43655000      1.87550000      9.15512000       1
H               5.80054000      2.72041000      7.63092000       1
H              -0.02087810     -9.58862000     -2.74220000       1
