200
cutoff_factor=1.20000000 nneightol=1.20000000 Lattice="29.29129000       0.00000000       0.00000000       0.00000000      28.69636000       0.00000000       0.00000000       0.00000000      28.28627000" Properties=species:S:1:pos:R:3:Z:I:1
I              -1.13604000     -0.96684600      0.46029200      53
P               0.60580000      1.16078000     -1.29865000      15
H               0.38651800     -0.34613100      2.60021000       1
I               3.23245000     -0.17187800     -0.04488230      53
I               0.22615600      3.13282000      1.20069000      53
N               0.74158700     -0.21422500      3.57103000       7
H               0.65329800     -3.22161000     -2.01366000       1
H              -2.59722000      2.50537000      1.66358000       1
H               1.77826000     -0.20439000      3.56430000       1
H               0.38684000      0.69519500      3.93320000       1
I               0.87277400     -0.76969700     -3.89189000      53
I              -1.96364000      2.53250000     -2.58972000      53
H               0.39568000     -4.17783000      0.20893100       1
H              -2.48138000     -0.60198200     -3.58764000       1
H              -3.98865000      1.60578000      1.29468000       1
C               0.23429500     -1.31110000      4.44443000       6
H              -3.87981000     -0.18538100     -2.54539000       1
H              -0.95624900     -4.51311000     -0.76498900       1
H               0.60249100     -2.26233000      4.05442000       1
H              -0.85772300     -1.28912000      4.42834000       1
N              -3.63390000      2.51520000      1.65684000       7
C               0.83434000     -4.28332000     -1.83367000       6
N               0.05872530     -4.69560000     -0.62849200       7
P              -3.83601000     -2.50699000      1.32658000      15
C              -3.54115000     -0.78258700     -3.39421000       6
I               2.41185000      3.46133000     -2.63816000      53
H               3.51776000      3.59009000      0.79952900       1
H              -3.77184000      3.44574000     -0.23067800       1
H               1.89411000     -4.46392000     -1.64023000       1
H               4.76233000      1.60578000      1.29468000       1
I               2.29170000     -4.14137000      2.18516000      53
H              -3.72219000     -1.84430000     -3.21422000       1
H               0.19238200      5.35362000     -0.42523600       1
H              -3.98897000      2.64711000      2.62766000       1
H               4.87116000     -0.18538100     -2.54539000       1
I              -5.51852000     -0.17187800     -0.04488230      53
C              -4.14119000      3.61208000      0.78344100       6
H               0.49567700     -4.88052000     -2.68248000       1
H               0.60364900     -1.14477000      5.45855000       1
H               0.60364900      2.54809000     -4.99720000       1
H               3.41924000     -0.55279200     -4.46289000       1
P               4.91496000     -2.50699000      1.32658000      15
I              -3.50271000     -4.29621000     -1.33599000      53
H               0.19238200     -5.70611000     -0.42523600       1
I              -4.14933000     -0.83185100      4.02719000      53
C               4.60978000      3.61208000      0.78344100       6
I              -2.08379000     -4.61739000      3.04272000      53
I              -1.14303000      2.47285000      5.27276000      53
N               5.11707000      2.51520000      1.65684000       7
H              -3.77300000      4.56330000      1.17345000       1
H               4.76200000      2.64711000      2.62766000       1
H               4.97914000      3.44574000     -0.23067800       1
I               4.60164000     -0.83185100      4.02719000      53
P               0.53947400      4.80797000      3.90129000      15
H               5.02878000     -1.84430000     -3.21422000       1
C               5.20983000     -0.78258700     -3.39421000       6
N              -4.31676000     -0.37030100     -4.59938000       7
N               0.05872510      6.36413000     -0.62849200       7
H              -5.23321000      3.59009000      0.79952900       1
N               4.43421000     -0.37030100     -4.59938000       7
H              -4.18311000      0.64020100     -4.80264000       1
C               0.23429500      2.38175000     -6.01132000       6
H              -0.85772300      2.40374000     -6.02741000       1
H               0.60249100      1.43053000     -6.40133000       1
I               3.23944000      3.26782000      4.76758000      53
H               4.56787000      0.64020100     -4.80264000       1
H              -0.95624900      6.54662000     -0.76498900       1
H               0.49567700      6.17921000     -2.68248000       1
H              -3.97981000     -0.88807900     -5.43681000       1
H               6.15375000      2.50537000      1.66358000       1
H               4.97797000      4.56330000      1.17345000       1
H               0.39568000      6.88190000      0.20893100       1
I               5.24826000     -4.29621000     -1.33599000      53
H              -5.33174000     -0.55279200     -4.46289000       1
H               1.89411000      6.59581000     -1.64023000       1
P               0.53947400     -2.55891000     -6.55446000      15
C               0.83433900      6.77641000     -1.83367000       6
I              -1.14303000     -4.89403000     -5.18299000      53
H               6.26959000     -0.60198200     -3.58764000       1
P              -3.76969000      4.83304000     -3.92923000      15
H               4.77117000     -0.88807900     -5.43681000       1
P               0.53947400     -6.25176000      3.90129000      15
I              -2.08379000      6.44234000      3.04272000      53
H              -3.77300000     -6.49643000      1.17345000       1
I               2.29170000      6.91836000      2.18516000      53
P              -3.76969000      1.14019000      6.52652000      15
H              -4.18311000     -3.05265000      5.65311000       1
I              -6.33912000      3.46133000     -2.63816000      53
I               7.61493000     -0.96684600      0.46029200      53
I               6.78734000      2.53250000     -2.58972000      53
I               3.23944000     -4.09906000     -5.68817000      53
I              -3.50271000      6.76352000     -1.33599000      53
N               0.74158700      3.47863000     -6.88472000       7
I              -2.08379000     -0.92453400     -7.41303000      53
H              -6.97271000     -0.20439000      3.56430000       1
H               0.38684000      4.38805000     -6.52255000       1
H              -3.97981000     -4.58093000      5.01894000       1
H               4.56787000     -3.05265000      5.65311000       1
H               1.77826000      3.48847000     -6.89145000       1
P               4.98129000      4.83304000     -3.92923000      15
I              -6.45928000     -4.14137000      2.18516000      53
I               0.87277400     -4.46255000      6.56386000      53
I              -5.51153000      3.26782000      4.76758000      53
I               0.22615600     -7.92691000      1.20069000      53
H               3.41924000     -4.24565000      5.99286000       1
H               0.65329800      7.83812000     -2.01366000       1
I              -1.14303000      6.16571000     -5.18299000      53
I              -4.14933000      2.86100000     -6.42857000      53
H               0.49567700      2.48635000      7.77327000       1
I               2.41185000     -0.23152800      7.81759000      53
I              -1.96364000     -1.16036000      7.86603000      53
H               4.97797000     -6.49643000      1.17345000       1
P              -3.76969000     -6.22669000     -3.92923000      15
P               4.98129000      1.14019000      6.52652000      15
H               3.51776000     -7.46964000      0.79952900       1
H               4.77117000     -4.58093000      5.01894000       1
P              -8.14517000      1.16078000     -1.29865000      15
N              -4.31676000     -4.06316000      5.85637000       7
H              -6.85687000     -4.46392000     -1.64023000       1
N               4.43421000     -4.06316000      5.85637000       7
I               2.41185000     -7.59840000     -2.63816000      53
I               4.60164000      2.86100000     -6.42857000      53
H              -2.48138000     -4.29484000      6.86811000       1
H              -3.77184000     -7.61399000     -0.23067800       1
H               0.38651800      3.34672000     -7.85554000       1
C              -4.14119000     -7.44765000      0.78344100       6
I               2.29170000     -0.44851500     -8.27059000      53
I               6.66718000     -4.61739000      3.04272000      53
I               5.24826000      6.76352000     -1.33599000      53
H              -8.36446000     -0.34613100      2.60021000       1
N              -8.00939000     -0.21422500      3.57103000       7
C               4.60978000     -7.44765000      0.78344100       6
I              -7.87820000     -0.76969700     -3.89189000      53
P               4.98129000     -6.22669000     -3.92923000      15
I              -5.51153000     -4.09906000     -5.68817000      53
H              -8.09768000     -3.22161000     -2.01366000       1
H               7.79472000     -4.51311000     -0.76498900       1
H              -5.33174000     -4.24565000      5.99286000       1
C              -3.54115000     -4.47544000      7.06154000       6
H              -2.59722000     -8.55437000      1.66358000       1
H               4.97914000     -7.61399000     -0.23067800       1
H              -3.97981000      6.47880000      5.01894000       1
I              -1.96364000     -8.52723000     -2.58972000      53
H               7.89325000     -1.28912000      4.42834000       1
H              -5.23321000     -7.46964000      0.79952900       1
I              -8.52482000      3.13282000      1.20069000      53
C              -7.91663000     -4.28332000     -1.83367000       6
C               0.83433900      3.08356000      8.62208000       6
H              -8.36413000      0.69519500      3.93320000       1
H               0.38684000     -6.67168000     -6.52255000       1
H              -8.35529000     -4.17783000      0.20893100       1
I               0.87277400      6.59718000      6.56386000      53
H              -8.14848000     -2.26233000      4.05442000       1
H               0.65329800      4.14527000      8.44209000       1
N              -3.63390000     -8.54453000      1.65684000       7
P              -3.83601000      8.55274000      1.32658000      15
H               1.89411000      2.90295000      8.81552000       1
H               4.77117000      6.47880000      5.01894000       1
H               9.13749000     -0.34613100      2.60021000       1
P               9.35677000      1.16078000     -1.29865000      15
P               0.60580000     -2.53207000      9.15710000      15
I               3.23944000      6.96067000     -5.68817000      53
I               7.60794000      2.47285000      5.27276000      53
I               8.97713000      3.13282000      1.20069000      53
H              -3.87981000     -3.87824000      7.91036000       1
H              -6.85687000      6.59581000     -1.64023000       1
H              -3.98897000     -8.41263000      2.62766000       1
I               3.23944000     -7.79191000      4.76758000      53
C              -8.51668000     -1.31110000      4.44443000       6
H               3.41924000      6.81408000      5.99286000       1
H               0.60249100      8.79741000      4.05442000       1
I              -6.45928000      6.91836000      2.18516000      53
I               6.66718000      6.44234000      3.04272000      53
H              -3.72219000      5.52258000      7.24153000       1
H              -3.72219000     -5.53715000      7.24153000       1
C               5.20983000     -4.47544000      7.06154000       6
H              -8.14732000     -1.14477000      5.45855000       1
H               0.60364900     -8.51164000     -4.99720000       1
H              -8.14732000      2.54809000     -4.99720000       1
N              -8.69225000     -4.69560000     -0.62849200       7
I              -9.88702000     -0.96684600      0.46029200      53
P               4.91496000      8.55274000      1.32658000      15
H              -2.48138000      6.76489000      6.86811000       1
H              -8.25530000     -4.88052000     -2.68248000       1
H               9.13781000      0.69519500      3.93320000       1
P              -3.83601000      1.18586000     -9.12917000      15
H              -3.98897000     -4.71977000     -7.82809000       1
P               0.60580000     -9.89895000     -1.29865000      15
N               8.80970000     -4.69560000     -0.62849200       7
I               6.66718000     -0.92453400     -7.41303000      53
H               4.76200000     -8.41263000      2.62766000       1
H               9.14665000     -4.17783000      0.20893100       1
H               4.87116000     -3.87824000      7.91036000       1
I              -6.33912000     -0.23152800      7.81759000      53
N              -4.31676000      6.99657000      5.85637000       7
N               5.11707000     -8.54453000      1.65684000       7
H              -8.55859000      5.35362000     -0.42523600       1
C               8.98527000     -1.31110000      4.44443000       6
I              -1.14303000     -8.58688000      5.27276000      53
H               9.40427000     -3.22161000     -2.01366000       1
