200
cutoff_factor=1.20000000 nneightol=1.20000000 Lattice="28.37657000       0.00000000       0.00000000       0.00000000      28.63005000       0.00000000       0.00000000       0.00000000      29.06451000" Properties=species:S:1:pos:R:3:Z:I:1
P              -0.50754400     -0.03219380     -0.07201470      15
I               2.01538000      1.92506000      0.08470310      53
I               1.40114000     -2.53836000      0.53696600      53
I              -0.15306300     -0.41319500     -3.21363000      53
I              -1.00853000      0.19010800      3.16811000      53
I              -2.49482000      2.45558000     -0.53985700      53
I              -3.05739000     -1.99888000     -0.05767490      53
H               3.61938000     -0.28310000     -1.65912000       1
H               2.59460000     -0.13185900      3.17626000       1
H               0.03969410     -3.18544000      2.59350000       1
H              -3.46154000      0.41924300      2.53629000       1
H              -1.09471000     -3.72349000     -2.11447000       1
H               2.38016000     -0.49411600     -3.72004000       1
H               4.12323000      0.69792500      1.51882000       1
H               0.45965400      3.45163000      2.84192000       1
H               0.27849100      4.03394000     -2.09696000       1
H              -1.18785000      3.83327000      2.24030000       1
H              -3.79787000     -0.05729850     -2.62263000       1
H               0.33743700     -3.55870000     -3.18310000       1
C               4.03738000      0.10723000     -2.58967000       6
H               3.81031000      1.17064000     -2.69450000       1
C               3.65235000     -0.40081500      3.22376000       6
H               3.82388000     -1.36334000      2.73634000       1
C              -0.50545900      3.89890000      3.09080000       6
H              -1.65049000      3.33560000     -3.37449000       1
N              -0.38192200     -3.67589000      3.41321000       7
H              -1.27002000     -3.21430000      3.67107000       1
C              -0.35613800     -4.26011000     -2.71430000       6
H              -4.79143000      0.69792500      1.51882000       1
N               3.41421000     -0.62296000     -3.72871000       7
N               4.43480000      0.63684500      2.50492000       7
N              -4.47986000      0.63684500      2.50492000       7
H              -0.93876200      3.41009000      3.96633000       1
H               3.58843000     -1.64730000     -3.65644000       1
H               0.18687300     -4.97943000     -2.09696000       1
H               4.30800000      1.58562000      2.91750000       1
C              -0.26452000      4.75327000     -2.71430000       6
H               0.27012900     -3.55429000      4.21301000       1
C              -4.87728000      0.10723000     -2.58967000       6
H              -5.29528000     -0.28310000     -1.65912000       1
N              -0.98149000      4.00685000     -3.79144000       7
H              -0.31510400      3.48629000     -4.39969000       1
H              -4.60667000      1.58562000      2.91750000       1
H               5.11679000     -0.05729850     -2.62263000       1
H              -1.00309000      5.28989000     -2.11447000       1
H              -1.27946000     -5.18010000      2.24030000       1
H               3.99368000     -0.43149000      4.26094000       1
H              -5.10436000      1.17064000     -2.69450000       1
P               3.88185000     -4.49192000     -0.02168430      15
H              -5.09078000     -1.36334000      2.73634000       1
H               3.79759000     -0.26693800     -4.62566000       1
C              -0.59707700     -5.11447000      3.09080000       6
P               3.97347000      4.52145000     -0.02168430      15
H               5.45312000      0.41924300      2.53629000       1
C              -5.26231000     -0.40081500      3.22376000       6
I               5.85728000     -1.99888000     -0.05767490      53
H               0.36803600     -5.56175000      2.84192000       1
I               3.43351000     -4.22336000     -3.19438000      53
H               0.42905500      5.45467000     -3.18310000       1
N              -0.29030400      5.33749000      3.41321000       7
N              -1.07311000     -5.00653000     -3.79144000       7
H               0.13131200      5.82794000      2.59350000       1
P              -0.61136700     -0.02419610      6.35878000      15
H              -1.59548000     -4.35215000     -4.41224000       1
P              -0.79251000     -0.21780700     -6.34908000      15
I               1.86523000     -2.06666000      5.85097000      53
H              -4.92098000     -0.43149000      4.26094000       1
H              -1.50386000      4.66123000     -4.41224000       1
I               1.49275000      6.47502000      0.53696600      53
H              -5.32624000     -1.64730000     -3.65644000       1
N              -5.50046000     -0.62296000     -3.72871000       7
P              -4.94119000      4.52145000     -0.02168430      15
P              -5.03281000     -4.49192000     -0.02168430      15
I               3.52512000      4.79001000     -3.19438000      53
I               4.36790000      4.11508000      3.19172000      53
H              -1.74210000     -5.67778000     -3.37449000       1
I               1.08298000      2.40350000     -6.36660000      53
I               6.41985000      2.45558000     -0.53985700      53
H              -5.11707000     -0.26693800     -4.62566000       1
H               0.36174700      5.45909000      4.21301000       1
I              -4.54676000      4.11508000      3.19172000      53
I              -3.38285000      1.60011000     -5.81864000      53
H              -1.03038000     -5.60329000      3.96633000       1
H              -1.17840000      5.79907000      3.67107000       1
I               1.26413000      2.59711000      6.34126000      53
I              -2.58643000     -6.55780000     -0.53985700      53
H              -6.32006000     -0.13185900      3.17626000       1
H              -0.40672200     -5.52708000     -4.39969000       1
I              -6.89928000      1.92506000      0.08470310      53
I               4.27628000     -4.89830000      3.19172000      53
I               1.92377000     -7.08832000      0.08470310      53
I              -2.64987000     -2.86693000     -6.27424000      53
I              -2.46873000     -2.67332000      6.43362000      53
I               1.68409000     -2.26027000     -6.85689000      53
I              -4.63838000     -4.89830000      3.19172000      53
H              -6.53450000     -0.49411600     -3.72004000       1
I              -2.96577000      7.01450000     -0.05767490      53
I              -5.48116000     -4.22336000     -3.19438000      53
I              -3.20170000      1.79372000      6.88923000      53
I              -5.38954000      4.79001000     -3.19438000      53
I              -7.51353000     -2.53836000      0.53696600      53
I               5.53182000      1.60011000     -5.81864000      53
P               8.40712000     -0.03219380     -0.07201470      15
P               3.74115000      4.22208000     -6.35913000      15
I               7.90614000      0.19010800      3.16811000      53
P               3.92229000      4.41569000      6.34873000      15
H               7.26418000      3.33560000     -3.37449000       1
P               3.83068000     -4.59768000      6.34873000      15
P               3.64953000     -4.79129000     -6.35913000      15
H               7.72682000      3.83327000      2.24030000       1
H               7.81995000     -3.72349000     -2.11447000       1
P              -0.41592600      8.98118000     -0.07201470      15
H               3.97874000     -0.07332740      8.08220000       1
H               3.68005000      7.36608000     -3.65644000       1
H               3.91550000      7.65004000      2.73634000       1
H               4.21638000     -7.42776000      2.91750000       1
P              -0.59916100     -9.04557000     -0.07201470      15
H               7.64464000     -3.21430000      3.67107000       1
H              -0.13396100      3.67990000      8.30817000       1
H               3.71869000     -7.84274000     -2.69450000       1
I               1.17251000     -6.41627000      6.34126000      53
I               5.71296000      1.79372000      6.88923000      53
I               6.32823000     -6.55780000     -0.53985700      53
I              -2.55826000      6.14645000     -6.27424000      53
I              -0.06144560      8.60018000     -3.21363000      53
I               5.94889000      7.01450000     -0.05767490      53
P              -4.99237000      4.41569000      6.34873000      15
P              -5.17351000      4.22208000     -6.35913000      15
I               0.99136500     -6.60988000     -6.36660000      53
H              -4.69829000     -7.42776000      2.91750000       1
H               0.08898550     -3.74790000     -8.49486000       1
H               3.81254000     -0.62510100     -8.44692000       1
I               1.95685000      6.94672000      5.85097000      53
I               6.26479000     -2.86693000     -6.27424000      53
I              -2.37711000      6.34006000      6.43362000      53
I               8.76160000     -0.41319500     -3.21363000      53
P              -5.08399000     -4.59768000      6.34873000      15
H               2.56131000     -0.30050500      8.98782000       1
H               4.03161000     -8.31545000      1.51882000       1
H              -1.11990000      3.21648000     -8.74153000       1
H              -1.41434000     -4.15854000      8.29563000       1
I              -7.04943000     -2.06666000      5.85097000      53
P              -9.42221000     -0.03219380     -0.07201470      15
I              -1.10014000     -8.82327000      3.16811000      53
H              -4.93593000     -0.07332740      8.08220000       1
I               6.44593000     -2.67332000      6.43362000      53
H               7.63520000     -5.18010000      2.24030000       1
I               0.02808000     -0.21958400      9.49423000      53
H               7.97590000      3.41009000      3.96633000       1
H              -4.99916000      7.65004000      2.73634000       1
P              -5.26513000     -4.79129000     -6.35913000      15
H              -8.45501000      3.45163000      2.84192000       1
H               7.31918000     -4.35215000     -4.41224000       1
I              -1.18967000     -0.00350270     -9.53975000      53
H               2.47178000      8.51926000     -3.72004000       1
I              -9.06773000     -0.41319500     -3.21363000      53
H               3.71100000      8.73028000     -1.65912000       1
H              -3.55316000     -8.59413000      2.53629000       1
N               7.93317000      4.00685000     -3.79144000       7
N               3.59535000     -0.42935000      8.97915000       7
H              -1.32272000      4.85484000      8.29563000       1
H              -5.23462000      7.36608000     -3.65644000       1
H               7.91157000      5.28989000     -2.11447000       1
H               7.17256000     -5.67778000     -3.37449000       1
H              -8.63617000      4.03394000     -2.09696000       1
H              -4.88305000     -8.31545000      1.51882000       1
N               4.34318000     -8.37653000      2.50492000       7
H              -1.45116000     -3.40791000     -9.03679000       1
C               8.40921000      3.89890000      3.09080000       6
I              -0.91690700      9.20348000      3.16811000      53
H              -8.87497000     -3.18544000      2.59350000       1
H              -5.19598000     -7.84274000     -2.69450000       1
I               1.77571000      6.75311000     -6.85689000      53
H               7.41080000      4.66123000     -4.41224000       1
H               2.68622000      8.88152000      3.17626000       1
H              -8.57723000     -3.55870000     -3.18310000       1
N               3.50583000      8.39042000     -3.72871000       7
H               2.41346000     -0.32547000     -9.53161000       1
H               8.95436000     -3.18544000      2.59350000       1
I              -7.42191000      6.47502000      0.53696600      53
N              -4.57148000     -8.37653000      2.50492000       7
H              -0.22557900     -5.33347000      8.30817000       1
H              -5.10213000     -0.62510100     -8.44692000       1
N              -0.80034600      4.20046000      8.91642000       7
N               8.53274000     -3.67589000      3.41321000       7
H               3.76957000     -1.45369000      9.05142000       1
C               3.74397000      8.61256000      3.22376000       6
C               8.55853000     -4.26011000     -2.71430000       6
I              -6.99090000     -7.08832000      0.08470310      53
I              -0.24468100     -9.42657000     -3.21363000      53
H               0.18060300      5.26548000     -8.49486000       1
H               2.50298000     -9.14524000      3.17626000       1
H              -3.70626000      8.95608000     -2.62263000       1
I              -3.47446000     -7.41327000     -5.81864000      53
N               7.84156000     -5.00653000     -3.79144000       7
C               3.94577000     -8.90615000     -2.58967000       6
H               3.52776000     -9.29648000     -1.65912000       1
N              -0.56306500     -3.86950000     -9.29465000       7
H              -1.46934000      3.52921000      9.33337000       1
H               0.51858100     -3.36509000      9.52476000       1
