200
cutoff_factor=1.20000000 nneightol=1.20000000 Lattice="28.62832000       0.00000000       0.00000000       0.00000000      29.14269000       0.00000000       0.00000000       0.00000000      27.75471000" Properties=species:S:1:pos:R:3:Z:I:1
H               0.45556700      0.60948800      1.49631000       1
H               1.76758000      0.64002900      0.27264600       1
I              -0.33843200     -1.42860000     -1.36049000      53
C               1.50658000      0.38375400      1.30184000       6
H               1.71350000     -0.67109700      1.49645000       1
P              -2.81566000      0.55577800     -1.42425000      15
N               2.34249000      1.20498000      2.22028000       7
I              -0.89253000      3.10246000     -1.37947000      53
I              -2.99324000      0.61302300      1.79687000      53
H              -1.80229000     -2.86655000      1.18561000       1
H               1.32771000      0.20806100     -3.38763000       1
H               2.17079000      2.22028000      2.06519000       1
H               2.11870000      0.98524400      3.21016000       1
H               3.35458000      1.01517000      2.06529000       1
P               1.60144000     -3.94083000     -1.42425000      15
N              -2.52434000     -3.57585000      0.98964600       7
H              -3.26283000     -3.12887000      0.40274900       1
I               3.57581000      2.41647000     -1.57173000      53
C               1.36143000      0.24119900     -4.47881000       6
I               1.65554000     -4.11940000      1.79687000      53
H              -2.09059000     -4.32217000      0.40273200       1
I               4.18198000     -2.06339000     -1.37948000      53
H               0.39443800      0.54921200     -4.88273000       1
H              -1.93157000      4.59361000      0.40273200       1
H               1.65212000     -0.73112500     -4.88275000       1
I              -4.73518000     -2.06339000     -1.37948000      53
I               1.81457000      4.79639000      1.79687000      53
H               2.15574000      2.19069000     -4.51938000       1
P               1.76047000      4.97495000     -1.42425000      15
I              -0.04760990      2.22687000      5.01527000      53
I              -1.12203000     -2.19834000      4.90630000      53
I              -2.86879000      0.46631700     -4.67801000      53
N               2.38463000      1.24630000     -4.88543000       7
H              -2.12189000      4.32136000      2.82073000       1
H              -3.53842000     -3.31435000      2.82073000       1
C              -3.09084000     -4.13236000      2.25149000       6
H               3.32480000      1.00057000     -4.51942000       1
H              -2.77519000     -3.82223000     -3.19676000       1
P              -2.75232000      0.52239900      4.99116000      15
H              -3.68884000      4.03975000      1.99245000       1
H              -2.28092000     -4.59443000      2.82073000       1
H              -2.32517000     -2.19008000     -4.95189000       1
N              -2.36532000      5.33993000      0.98964600       7
H              -5.56258000      1.01517000      2.06529000       1
C              -2.93181000      4.78342000      2.25149000       6
I              -1.05156000     -5.81333000     -1.37947000      53
I              -5.34135000      2.41647000     -1.57173000      53
H              -1.13515000     -3.40147000     -4.95179000       1
I               3.32159000     -1.20300000      5.01530000      53
I               5.92392000      0.61302300      1.79687000      53
P               6.10150000      0.55577800     -1.42425000      15
I               1.51108000     -3.99239000     -4.67800000      53
H              -1.64326000      6.04923000      1.18561000       1
N              -2.14293000     -3.20128000     -5.11012000       7
H              -2.63436000      3.81696000     -4.45781000       1
H               5.65433000     -3.12887000      0.40274900       1
P               1.56920000     -3.87691000      4.99115000      15
H              -3.84787000     -4.87603000      1.99245000       1
H               2.47081000      1.33098000     -5.92120000       1
H              -2.61617000      5.09355000     -3.19676000       1
H              -3.10380000      5.78692000      0.40274900       1
C              -3.00695000     -4.04997000     -4.23958000       6
H               5.22832000      4.03975000      1.99245000       1
H               5.37874000     -3.31435000      2.82073000       1
I               1.67011000      4.92340000     -4.67800000      53
N              -6.57467000      1.20498000      2.22028000       7
C              -2.84793000      4.86582000     -4.23958000       6
H              -3.37940000      5.60144000      2.82073000       1
H              -4.05182000     -3.81777000     -4.45789000       1
H              -7.14958000      0.64002900      0.27264600       1
H               2.09046000      0.95722000      6.81702000       1
H              -5.59236000      1.00057000     -4.51942000       1
H               2.01176000     -6.69551000      2.06519000       1
P               1.72823000      5.03888000      4.99115000      15
H               5.06929000     -4.87603000      1.99245000       1
H              -2.79339000     -5.09883000     -4.45781000       1
H              -2.34104000     -3.39599000     -6.11186000       1
H              -7.20366000     -0.67109700      1.49645000       1
N               6.39282000     -3.57585000      0.98964600       7
H              -6.74637000      2.22028000      2.06519000       1
I               4.33473000      3.16196000      5.16293000      53
H              -0.97612300      5.51432000     -4.95179000       1
C               5.82632000     -4.13236000      2.25149000       6
I               3.41678000     -6.49931000     -1.57173000      53
C              -7.41058000      0.38375400      1.30184000       6
H              -6.79846000      0.98524400      3.21016000       1
I              -4.58243000      3.16196000      5.16293000      53
I              -5.59557000     -1.20300000      5.01530000      53
I              -0.17940400      7.48718000     -1.36049000      53
H               4.86534000     -3.81777000     -4.45789000       1
I               6.04837000      0.46631700     -4.67801000      53
H               7.11487000     -2.86655000      1.18561000       1
H              -3.89280000      5.09802000     -4.45789000       1
I              -0.09677020     -1.19124000     -7.76596000      53
H               6.14197000     -3.82223000     -3.19676000       1
N              -1.98390000      5.71451000     -5.11012000       7
P               6.16484000      0.52239900      4.99116000      15
C               5.98535000      4.78342000      2.25149000       6
H              -2.17388000     -3.23159000      7.00769000       1
H               6.82657000     -4.32217000      0.40273200       1
H               5.81336000      5.78692000      0.40274900       1
N               2.28856000      1.15193000      7.81877000       7
I               4.34101000      6.85239000     -1.37948000      53
N              -6.53253000      1.24630000     -4.88543000       7
H              -7.58945000      0.20806100     -3.38763000       1
N               2.18346000     -7.71081000      2.22028000       7
C               5.91021000     -4.04997000     -4.23958000       6
H               1.99672000     -6.72509000     -4.51938000       1
I              -4.57615000      6.85239000     -1.37948000      53
I              -0.20663800     -6.68892000      5.01527000      53
H               5.53776000      5.60144000      2.82073000       1
H               6.98559000      4.59361000      0.40273200       1
I              -0.96300200      6.71744000      4.90630000      53
P              -2.70327000      0.68566900     -7.93773000      15
H              -6.76142000      2.19069000     -4.51938000       1
P              -7.31572000     -3.94083000     -1.42425000      15
H               5.02436000      5.09802000     -4.45789000       1
H               1.60856000     -8.27576000      0.27264600       1
H               0.29653900     -8.30630000      1.49631000       1
H               0.37967300      0.53544000      8.47099000       1
N               6.55185000      5.33993000      0.98964600       7
H              -2.18201000      5.51980000     -6.11186000       1
H               2.10633000      2.16313000      7.97699000       1
H               6.59199000     -2.19008000     -4.95189000       1
H               6.79527000      4.32136000      2.82073000       1
I              -7.26162000     -4.11940000      1.79687000      53
H               6.63624000     -4.59443000      2.82073000       1
H               1.87252000      8.24469000      1.49645000       1
H               6.28280000      3.81696000     -4.45781000       1
H              -8.46159000      0.60948800      1.49631000       1
H              -2.16614000      6.72571000     -4.95189000       1
I              -0.95087500      3.35958000     -7.91359000      53
I              -5.50038000     -6.49931000     -1.57173000      53
H               1.63811000     -0.74561700      8.47108000       1
H               3.29635000      0.95174000      7.97710000       1
H               6.30099000      5.09355000     -3.19676000       1
I               8.02463000      3.10246000     -1.37947000      53
C               1.34755000     -8.53203000      1.30184000       6
I              -7.10259000      4.79639000      1.79687000      53
H               3.19555000     -7.90061000      2.06529000       1
H               1.95967000     -7.93054000      3.21016000       1
I              -2.97458000      0.36082000      8.25089000      53
H              -7.26504000     -0.73112500     -4.88275000       1
I               4.17570000     -5.75382000      5.16293000      53
C              -7.55573000      0.24119900     -4.47881000       6
I               8.57873000     -1.42860000     -1.36049000      53
C               1.42454000      0.30323900      8.68931000       6
P              -7.15669000      4.97495000     -1.42425000      15
H              -6.44635000      1.33098000     -5.92120000       1
C               6.06924000      4.86582000     -4.23958000       6
P               1.73335000     -3.83081000     -7.93773000      15
P              -2.97469000     -8.36001000     -1.42425000      15
N              -2.26006000     -3.31628000      8.04346000       7
I              -3.15226000     -8.30276000      1.79687000      53
I              -4.74146000     -5.75382000      5.16293000      53
N               6.77423000     -3.20128000     -5.11012000       7
I               3.52266000      2.36424000     -8.02259000      53
H              -2.48895000     -2.37188000      8.40951000       1
H               6.12377000     -5.09883000     -4.45781000       1
H              -1.31989000     -3.56200000      8.40947000       1
H              -2.01486000      5.68419000      7.00769000       1
H              -2.83355000      3.62208000      8.04614000       1
I               1.40368000     -4.09626000      8.25088000      53
I               4.43805000     -2.12634000     -7.91361000      53
I              -4.47911000     -2.12634000     -7.91361000      53
N               2.22560000     -7.66949000     -4.88543000       7
H               1.16868000     -8.70772000     -3.38763000       1
I              -9.25559000     -1.42860000     -1.36049000      53
I               7.79513000     -2.19834000      4.90630000      53
H               9.37273000      0.60948800      1.49631000       1
H               7.27390000      6.04923000      1.18561000       1
C               1.66560000      9.29954000      1.30184000       6
H               6.57612000     -3.39599000     -6.11186000       1
P               1.89238000      5.08498000     -7.93773000      15
I              -7.40608000     -3.99239000     -4.67800000      53
H               3.16577000     -7.91521000     -4.51942000       1
H               0.61459500      9.52527000      1.49631000       1
I               1.56271000      4.81952000      8.25088000      53
H               0.23541100     -8.36657000     -4.88273000       1
P              -7.34796000     -3.87691000      4.99115000      15
H              -6.82670000      0.95722000      6.81702000       1
H               1.81115000      8.18466000     -4.88275000       1
I              -1.10990000     -5.55621000     -7.91359000      53
H               1.92661000      9.55581000      0.27264600       1
H              -5.62081000      0.95174000      7.97710000       1
H               1.55447000     -9.58688000      1.49645000       1
H               7.78201000     -3.40147000     -4.95179000       1
C               1.20240000     -8.67459000     -4.47881000       6
I               3.48062000      7.71278000      5.01530000      53
H              -6.90540000     -6.69551000      2.06519000       1
H              -8.52272000      0.54921200     -4.88273000       1
H               1.48674000      9.12385000     -3.38763000       1
I               7.86560000     -5.81333000     -1.37947000      53
H               1.65630000      0.53097800      9.73212000       1
H               2.31178000     -7.58480000     -5.92120000       1
I              -7.24705000      4.92340000     -4.67800000      53
P              -2.65663000      9.47156000     -1.42425000      15
H              -4.25025000     -4.01336000      8.04616000       1
I              -5.39450000      2.36424000     -8.02259000      53
H              -5.72161000     -7.90061000      2.06529000       1
