200
cutoff_factor=1.20000000 nneightol=1.20000000 Lattice="27.86688000       0.00000000       0.00000000       0.00000000      29.21745000       0.00000000       0.00000000       0.00000000      29.23988000" Properties=species:S:1:pos:R:3:Z:I:1
I               0.08297930      1.63645000      0.06071460      53
P              -1.68828000     -1.01261000      0.01363600      15
I               1.04408000     -2.86720000      0.24681700      53
H               2.06340000     -1.90412000     -1.94521000       1
H               2.43053000      0.15184900      2.60882000       1
H              -1.52222000      2.17355000     -2.49229000       1
I              -1.46423000     -1.14528000     -3.16459000      53
H              -0.85706300      3.04964000      1.96071000       1
H               1.12563000     -1.57692000     -3.28780000       1
I              -1.95450000     -1.09509000      3.16700000      53
N               2.09353000     -1.80802000     -2.98199000       7
H               2.78071000      0.18748300     -2.99786000       1
H               1.51548000     -0.86811400      3.76788000       1
H               2.84762000     -2.19719000      2.24769000       1
C               2.50696000     -0.52741600      3.46090000       6
P               2.79676000      3.31397000      0.03067940      15
I              -4.36824000      0.69866400     -0.14442500      53
I               4.56520000      0.69866400     -0.14442500      53
C              -1.44402000      2.84317000     -3.35127000       6
C               3.06801000     -0.77197900     -3.43388000       6
N              -1.29572000      3.78478000      2.55838000       7
H              -0.47444600      3.34610000     -3.35899000       1
N               3.30732000     -1.71553000      3.04598000       7
H               2.30928000     -2.74320000     -3.37849000       1
H              -2.72881000      2.48921000      3.41164000       1
H              -1.97702000      4.27943000      1.94341000       1
H              -1.59582000      2.28916000     -4.27991000       1
I              -3.43843000     -3.81559000      0.01266180      53
H               4.06514000     -1.06226000     -3.09526000       1
H              -1.20850000      2.66775000      4.34827000       1
H               3.01823000     -0.03980460      4.29405000       1
H               4.26384000     -1.42491000      2.76535000       1
C              -1.96299000      3.18881000      3.75449000       6
H              -0.55649800      4.45049000      2.83287000       1
I               2.68894000      3.35710000      3.19856000      53
H              -0.57674100     -4.55817000      2.83287000       1
H              -1.99727000     -4.72923000      1.94341000       1
H               3.03336000     -0.72236500     -4.52438000       1
I               2.82310000      3.55869000     -3.17008000      53
H              -2.44989000      4.42423000     -2.36042000       1
H              -4.66960000     -1.42491000      2.76535000       1
N              -2.51525000      3.87690000     -3.24220000       7
H               3.41649000     -2.37747000      3.84043000       1
H              -2.47014000     -4.58444000     -2.36042000       1
H              -3.46139000      3.44891000     -3.24119000       1
H              -4.86830000     -1.06226000     -3.09526000       1
N              -1.31596000     -5.22388000      2.55838000       7
I              -3.41819000      5.19307000      0.01266180      53
I               1.06432000      6.14146000      0.24681700      53
H              -0.87730600     -5.95903000      1.96071000       1
P               2.77652000     -5.69469000      0.03067940      15
H              -2.41550000      3.99497000      4.33652000       1
H              -2.52518000     -4.48301000     -4.05739000       1
I               0.62340500      0.84152800      6.48809000      53
H              -2.50494000      4.52565000     -4.05739000       1
N              -2.53549000     -5.13176000     -3.24220000       7
H              -0.49468900     -5.66256000     -3.35899000       1
N              -5.62612000     -1.71553000      3.04598000       7
I               0.31493000      1.49336000     -6.49829000      53
I               5.49501000     -3.81559000      0.01266180      53
P              -1.60994000     -1.05499000     -6.41253000      15
P              -1.92183000     -1.14490000      6.34963000      15
C              -5.86543000     -0.77197900     -3.43388000       6
H              -6.15273000      0.18748300     -2.99786000       1
H              -6.08582000     -2.19719000      2.24769000       1
I               2.80285000     -5.44997000     -3.17008000      53
P              -6.13668000      3.31397000      0.03067940      15
H              -6.50291000      0.15184900      2.60882000       1
I               2.66870000     -5.65156000      3.19856000      53
H              -2.43574000     -5.01370000      4.33652000       1
I               0.89708900     -3.03123000     -6.36299000      53
H              -5.51696000     -2.37747000      3.84043000       1
C              -1.46427000     -6.16549000     -3.35127000       6
C              -1.98323000     -5.81985000      3.75449000       6
H               5.47205000      3.44891000     -3.24119000       1
H              -5.91521000     -0.03980460      4.29405000       1
P               7.24516000     -1.01261000      0.01363600      15
H              -3.48163000     -5.55976000     -3.24119000       1
C              -6.42648000     -0.52741600      3.46090000       6
I               0.06273640     -7.37221000      0.06071460      53
H              -6.87004000     -1.90412000     -1.94521000       1
I               0.05144330     -3.65951000      6.42312000      53
H              -1.54246000     -6.83512000     -2.49229000       1
H              -5.90008000     -0.72236500     -4.52438000       1
H               2.32953000      6.26547000     -3.37849000       1
H               6.20463000      2.48921000      3.41164000       1
I               5.51525000      5.19307000      0.01266180      53
I              -3.84137000      1.39289000      6.44128000      53
I              -4.12330000      0.92502800     -6.38114000      53
H               2.08364000      7.10454000     -1.94521000       1
P               2.58504000      3.36913000      6.39174000      15
N              -6.83991000     -1.80802000     -2.98199000       7
H               2.86787000      6.81147000      2.24769000       1
I               6.97894000     -1.09509000      3.16700000      53
I              -6.11034000      3.55869000     -3.17008000      53
I              -6.24450000      3.35710000      3.19856000      53
H              -1.22874000     -6.34091000      4.34827000       1
P               2.83687000      3.43964000     -6.45463000      15
H              -2.74906000     -6.51945000      3.41164000       1
H              -6.62416000     -2.74320000     -3.37849000       1
I               4.81015000      0.92502800     -6.38114000      53
N               2.11377000      7.20064000     -2.98199000       7
I              -3.57158000     -3.58259000     -6.31617000      53
H               7.41122000      2.17355000     -2.49229000       1
H              -1.61606000     -6.71950000     -4.27991000       1
P              -1.66804000      7.99605000      0.01363600      15
N               6.41819000      3.87690000     -3.24220000       7
I               7.46922000     -1.14528000     -3.16459000      53
H               6.48355000      4.42423000     -2.36042000       1
H               1.14587000      7.43174000     -3.28780000       1
H               6.46331000     -4.58444000     -2.36042000       1
I              -4.44377000     -3.09118000      6.30598000      53
I               5.09207000      1.39289000      6.44128000      53
I               4.48967000     -3.09118000      6.30598000      53
I               0.07168610      5.34915000      6.42312000      53
H              -7.41796000     -0.86811400      3.76788000       1
P              -6.15692000     -5.69469000      0.03067940      15
H               6.95642000      4.27943000      1.94341000       1
I              -7.88936000     -2.86720000      0.24681700      53
H               3.43673000      6.63119000      3.84043000       1
H               5.45181000     -5.55976000     -3.24119000       1
C               6.97045000      3.18881000      3.75449000       6
N               3.32757000      7.29313000      3.04598000       7
I              -1.44398000      7.86338000     -3.16459000      53
H               6.93617000     -4.72923000      1.94341000       1
H              -7.80781000     -1.57692000     -3.28780000       1
C               7.48942000      2.84317000     -3.35127000       6
I              -1.93425000      7.91357000      3.16700000      53
I               0.91733200      5.97743000     -6.36299000      53
H               6.51794000      3.99497000      4.33652000       1
H               2.32296000     -0.42915400     -8.46775000       1
I              -6.13059000     -5.44997000     -3.17008000      53
H               7.33762000      2.28916000     -4.27991000       1
H               6.40826000     -4.48301000     -4.05739000       1
N               6.39795000     -5.13176000     -3.24220000       7
H               6.42850000      4.52565000     -4.05739000       1
H               8.07638000      3.04964000      1.96071000       1
N               7.63772000      3.78478000      2.55838000       7
P               2.56480000     -5.63953000      6.39174000      15
H               1.66980000     -0.05888960      8.74688000       1
P               2.81663000     -5.56902000     -6.45463000      15
I              -8.85046000      1.63645000      0.06071460      53
I              -6.26474000     -5.65156000      3.19856000      53
I               5.36186000     -3.58259000     -6.31617000      53
I              -3.55133000      5.42607000     -6.31617000      53
H               1.53572000      8.14055000      3.76788000       1
H               4.28409000      7.58375000      2.76535000       1
I               9.01642000      1.63645000      0.06071460      53
H               2.57892000     -2.29538000      8.52435000       1
H              -1.70510000      3.70176000      8.27988000       1
H               7.72494000      2.66775000      4.34827000       1
H              -0.75825300      2.20707000     -8.96384000       1
H               6.49770000     -5.01370000      4.33652000       1
H              -4.64935000      7.58375000      2.76535000       1
H               3.52996000     -1.75637000     -8.45599000       1
H              -6.06557000      6.81147000      2.24769000       1
I              -4.38848000     -8.31000000     -0.14442500      53
H              -5.49671000      6.63119000      3.84043000       1
C               3.08825000      8.23668000     -3.43388000       6
H               4.08539000      7.94640000     -3.09526000       1
I               4.54496000     -8.31000000     -0.14442500      53
C               2.52721000      8.48125000      3.46090000       6
P              -6.09657000      3.43964000     -6.45463000      15
P               7.01161000     -1.14490000      6.34963000      15
H               2.41029000     -8.85681000      2.60882000       1
C               2.77547000     -1.23531000     -9.04977000       6
N               7.61748000     -5.22388000      2.55838000       7
H               6.18438000     -6.51945000      3.41164000       1
P              -6.34840000      3.36913000      6.39174000      15
H               0.71334800     -1.13563000      9.56307000       1
H              -1.17675000     -4.46393000     -8.51022000       1
N              -5.60587000      7.29313000      3.04598000       7
H               8.45899000      3.34610000     -3.35899000       1
H              -6.60391000      6.26547000     -3.37849000       1
I              -4.42353000      5.91748000      6.30598000      53
H              -1.15651000      4.54474000     -8.51022000       1
H               2.76047000     -8.82118000     -2.99786000       1
N               1.65949000     -0.70764200      9.56207000       7
I               4.50991000      5.91748000      6.30598000      53
I              -1.50604000     -1.06702000     -9.60570000      53
P               7.32350000     -1.05499000     -6.41253000      15
H               2.00965000     -1.93491000     -9.39263000       1
H              -4.84805000      7.94640000     -3.09526000       1
C               6.95021000     -5.81985000      3.75449000       6
H               2.45077000      9.16051000      2.60882000       1
H              -2.42917000      1.68092000      9.42577000       1
I              -1.93560000     -1.02585000      9.63418000      53
H               8.37694000      4.45049000      2.83287000       1
I               5.38211000      5.42607000     -6.31617000      53
H               3.05360000      8.28630000     -4.52438000       1
H               8.35670000     -4.55817000      2.83287000       1
I               0.29468700     -7.51530000     -6.49829000      53
H              -1.72534000     -5.30691000      8.27988000       1
I              -7.86912000      6.14146000      0.24681700      53
C               2.73072000     -1.74137000      9.45300000       6
H              -6.84980000      7.10454000     -1.94521000       1
H               2.80096000      9.19615000     -2.99786000       1
H              -2.65926000      3.71643000     -9.03638000       1
P              -1.70853000    -10.02130000      0.01363600      15
H              -5.40348000     -1.75637000     -8.45599000       1
