200
cutoff_factor=1.20000000 nneightol=1.20000000 Lattice="29.18801000       0.00000000       0.00000000       0.00000000      29.12484000       0.00000000       0.00000000       0.00000000      28.51857000" Properties=species:S:1:pos:R:3:Z:I:1
H              -2.12821000     -0.94565100      0.58456000       1
I              -2.03602000     -0.50505300     -1.91111000      53
H              -1.86683000     -0.50700300      2.20272000       1
N              -2.46415000     -1.07740000      1.56501000       7
I               1.44288000     -2.05908000      1.93551000      53
P               0.59134500     -0.46872500     -3.58658000      15
H              -1.40929000     -2.87860000      1.86741000       1
I               1.41478000      2.34379000     -2.55007000      53
P               2.26631000      0.75345200      2.97201000      15
H              -3.42751000     -0.67223900      1.59979000       1
C              -2.43367000     -2.51340000      1.96064000       6
I              -0.86421900      1.12701000      3.85804000      53
H              -3.09773000     -3.06949000      1.29541000       1
H              -4.03664000      0.95702000     -2.21435000       1
H              -2.77463000     -2.59326000      2.99516000       1
H              -1.89951000      3.27455000      3.10342000       1
I               4.89366000      0.78984500      1.29653000      53
I               0.62360400     -3.61931000     -3.63230000      53
H              -3.65447000     -3.01058000     -2.22502000       1
H               4.98584000      1.23054000     -1.19915000       1
H              -3.80954000      3.29528000      1.61055000       1
H              -1.82120000      4.62801000      2.07534000       1
I               2.23395000      3.90404000      3.01776000      53
H               4.72448000      0.79168500     -2.81725000       1
N              -2.35727000      4.17973000      2.85439000       7
H              -5.33595000      1.23054000     -1.19915000       1
N              -5.00001000      1.36217000     -2.17961000       7
I              -5.42813000      0.78984500      1.29653000      53
P               2.32428000     -5.00860000      1.81645000      15
H              -4.36649000      3.35432000     -1.91029000       1
I              -0.61548500     -5.78947000      0.37361900      53
P               0.53338900      5.29331000     -2.43102000      15
H               4.26688000      3.16330000     -2.48231000       1
I               3.72188000     -0.84236400     -4.47251000      53
N               5.32178000      1.36217000     -2.17961000       7
H              -3.16161000     -3.21346000     -3.93728000       1
C              -3.78462000      3.95720000      2.47824000       6
I              -0.65285700      5.97439000      0.37361900      53
C              -3.67938000     -3.67250000     -3.09270000       6
C              -5.03051000      2.79811000     -2.57546000       6
H              -5.59731000      0.79168500     -2.81725000       1
H              -3.23204000     -4.63652000     -2.84538000       1
H               0.07421000      2.86422000      5.65168000       1
H              -4.30237000      3.49816000      3.32282000       1
H              -2.27649000      4.81334000      3.67401000       1
C               5.29128000      2.79811000     -2.57546000       6
H               0.60954300     -1.49318000      6.33022000       1
I              -2.13284000      4.69206000     -4.02134000      53
I              -0.30854800     -0.03635480     -6.53345000      53
H              -4.68953000      2.87783000     -3.60998000       1
I               3.16624000      0.32104900      5.91885000      53
H               6.28515000      0.95702000     -2.21435000       1
H               4.75730000     -2.98985000     -3.71791000       1
I               3.51049000     -5.68966000     -0.98820500      53
H              -4.23197000      4.92121000      2.23092000       1
H               4.67898000     -4.34332000     -2.68985000       1
P               0.57076100     -6.47055000     -2.43102000      15
I               3.47312000      6.07420000     -0.98820500      53
H               5.95530000      3.35432000     -1.91029000       1
H               6.89428000     -0.67223900      1.59979000       1
H              -6.05491000      3.16330000     -2.48231000       1
H               5.63226000      2.87783000     -3.60998000       1
N              -5.10673000     -3.89502000     -3.46888000       7
H               2.78360000     -2.57950000     -6.26618000       1
H              -5.56449000     -2.98985000     -3.71791000       1
N               0.15497800      3.49782000      6.47131000       7
P               2.28691000      6.75526000      1.81645000      15
N               5.21506000     -3.89502000     -3.46888000       7
H               6.51225000      3.29528000      1.61055000       1
I               4.99053000     -4.40737000      3.40675000      53
H               2.24809000      1.77775000     -6.94503000       1
C               0.26856800     -1.57290000      7.36474000       6
H              -0.75583400     -1.20771000      7.45789000       1
H               2.10009000      4.17938000      6.00292000       1
H              -5.64281000     -4.34332000     -2.68985000       1
H              -0.30278100      4.40300000      6.22229000       1
H              -1.78383000     -7.13585000      2.07534000       1
H               6.66732000     -3.01058000     -2.22502000       1
I              -1.30084000     -5.21338000      5.46769000      53
I              -5.33126000     -4.40737000      3.40675000      53
H               6.01942000      3.49816000      3.32282000       1
H               0.75771500     -3.89469000     -6.61737000       1
H              -0.38110800      3.04953000      7.25035000       1
H               2.02966000      2.75633000      7.09482000       1
C               1.58233000      3.72034000      6.84750000       6
H               7.22406000     -3.06949000      1.29541000       1
H              -0.29823500     -3.57933000      7.12295000       1
I              -6.59991000     -0.84236400     -4.47251000      53
C               6.53717000      3.95720000      2.47824000       6
H               5.13430000     -4.52863000     -4.28852000       1
N               7.85764000     -1.07740000      1.56501000       7
H              -5.18750000     -4.52863000     -4.28852000       1
H               0.82812000     -2.47163000     -7.70928000       1
H               6.08982000      4.92121000      2.23092000       1
H               0.93259100     -1.01669000      8.02990000       1
H              -2.23912000     -6.95051000      3.67401000       1
C               6.64241000     -3.67250000     -3.09270000       6
N               2.70282000     -3.21312000     -7.08581000       7
H               8.19358000     -0.94565100      0.58456000       1
C               1.27546000     -3.43565000     -7.46196000       6
I              -3.02775000     -3.48880000     -6.92244000      53
N               0.29906600     -3.00884000      7.76058000       7
H              -4.19459000     -6.84264000      2.23092000       1
H              -3.26942000      7.12734000     -2.84538000       1
I              -2.09547000     -7.07180000     -4.02134000      53
N              -2.31990000     -7.58413000      2.85439000       7
I              -3.60794000     -2.02722000      7.39013000      53
C               7.88812000     -2.51340000      1.96064000       6
I               8.28577000     -0.50505300     -1.91111000      53
H               7.54716000     -2.59326000      2.99516000       1
H               1.26244000     -3.41399000      7.72584000       1
H               3.16058000     -4.11829000     -6.83678000       1
I              -4.43648000      3.77353000      6.30790000      53
C               2.58904000      1.85761000     -7.97956000       6
P              -8.05548000      0.75345200      2.97201000      15
I              -1.33821000      6.55048000      5.46769000      53
P              -2.97480000     -0.63758500     -8.12375000      15
I               2.27132000     -7.85981000      3.01776000      53
H               8.45496000     -0.50700300      2.20272000       1
H               7.16018000     -3.21346000     -3.93728000       1
P              -4.48932000      0.92230000      7.50918000      15
I              -6.81130000     -5.68966000     -0.98820500      53
H               7.08975000     -4.63652000     -2.84538000       1
I               0.58623200      8.14454000     -3.63230000      53
H               3.23888000     -2.76484000     -7.86486000       1
H               1.92498000      1.30152000     -8.64478000       1
H               3.61343000      1.49241000     -8.07279000       1
C              -3.74725000     -7.80666000      2.47824000       6
H               1.60723000      4.38226000      7.71518000       1
P              -4.43137000     -4.83974000      6.35361000      15
H               4.64161000      7.42054000     -2.68985000       1
P              -3.03277000      5.12446000     -6.96819000      15
I              -3.85619000      2.31193000     -8.00469000      53
I               4.15849000      5.49802000     -6.08216000      53
H              -1.44666000      8.88526000      1.86741000       1
H               3.15588000      3.86401000     -7.73748000       1
I              -6.84867000      6.07420000     -0.98820500      53
H              -1.86214000     -8.48930000      3.10342000       1
I              -1.54960000      1.70319000      8.95199000      53
H               1.59520000      3.69877000     -8.34040000       1
H              -0.03687210     -3.14047000      8.74104000       1
I              -7.15555000      0.32104900      5.91885000      53
I              -8.87891000     -2.05908000      1.93551000      53
H              -3.13510000      8.69437000      1.29541000       1
N               2.55857000      3.29361000     -8.37519000       7
H               1.25054000     -4.09757000     -8.32964000       1
H              -3.77217000     -8.46858000      1.61055000       1
I               5.88531000      3.77353000      6.30790000      53
C              -3.71675000      8.09136000     -3.09270000       6
N               7.96452000      4.17973000      2.85439000       7
H               6.12720000     -6.84264000      2.23092000       1
I              -8.08784000      3.90404000      3.01776000      53
I               4.95316000      7.35649000      3.40675000      53
H               8.91250000     -2.87860000      1.86741000       1
P               5.83247000      0.92230000      7.50918000      15
H               8.42228000      3.27455000      3.10342000       1
I              -8.90701000      2.34379000     -2.55007000      53
P              -7.99751000     -5.00860000      1.81645000      15
H              -0.26540900     -7.36086000      6.22229000       1
H              -4.32911000     -8.40954000     -1.91029000       1
I               4.19587000     -6.26583000     -6.08216000      53
I              -5.36863000      7.35649000      3.40675000      53
H              -5.68019000      7.42054000     -2.68985000       1
H              -3.69184000      8.75327000     -2.22502000       1
C              -2.47104000      9.25046000      1.96064000       6
H               5.09692000      7.23523000     -4.28852000       1
I               1.45215000     -9.42006000     -2.55007000      53
H              -4.26500000     -8.26570000      3.32282000       1
H               8.50059000      4.62801000      2.07534000       1
H              -5.22487000      7.23523000     -4.28852000       1
H               2.13746000     -7.58447000      6.00292000       1
P               5.89042000     -4.83974000      6.35361000      15
H               4.30425000     -8.60055000     -2.48231000       1
H              -3.19898000      8.55040000     -3.93728000       1
I               3.26306000     -4.87606000      8.02909000      53
I               1.40551000      9.70478000      1.93551000      53
N              -5.14410000      7.86883000     -3.46888000       7
N               5.17769000      7.86883000     -3.46888000       7
H              -2.81200000      9.17059000      2.99516000       1
H               8.04530000      4.81334000      3.67401000       1
I              -0.40541200      5.16086000     -8.64366000      53
P              -2.99540000     -6.63939000     -6.96819000      15
H              -7.53819000     -2.57950000     -6.26618000       1
I               6.71385000     -2.02722000      7.39013000      53
I              -6.16330000      5.49802000     -6.08216000      53
I               8.18895000      4.69206000     -4.02134000      53
I               9.45757000      1.12701000      3.85804000      53
H               0.72034400      7.86917000     -6.61737000       1
H               2.89450000      3.42536000     -9.35564000       1
P              -9.73044000     -0.46872500     -3.58658000      15
P              -4.46874000      6.92412000      6.35361000      15
H               7.05237000      7.12734000     -2.84538000       1
N               0.19234900     -8.26603000      6.47131000       7
H               5.99268000     -8.40954000     -1.91029000       1
C               6.57454000     -7.80666000      2.47824000       6
H               0.11158200     -8.89964000      5.65168000       1
I               6.46560000      2.31193000     -8.00469000      53
C              -4.99314000     -8.96574000     -2.57546000       6
H              -6.70836000      1.49241000     -8.07279000       1
I               4.40723000     -1.41846000     -9.56658000      53
