200
cutoff_factor=1.20000000 nneightol=1.20000000 Lattice="27.88491000       0.00000000       0.00000000       0.00000000      28.07171000       0.00000000       0.00000000       0.00000000      28.50030000" Properties=species:S:1:pos:R:3:Z:I:1
I              -1.53326000      0.17142600     -0.37066400      53
P               1.08870000     -1.77054000     -0.81234400      15
H               1.42416000      1.94882000      1.28976000       1
I               2.88120000      1.05094000     -0.72293500      53
H               0.23087400      1.90941000      2.49844000       1
N               0.83729300      2.52891000      1.92375000       7
I               1.61221000     -1.88367000      2.32914000      53
H               0.24425600      3.12948000      1.31435000       1
H               0.87534300      2.24983000     -2.41473000       1
H              -3.36777000     -0.41770400      1.49249000       1
H              -2.00413000     -1.91278000      2.79133000       1
H               0.73555700      1.17497000     -3.69542000       1
N               0.57181900      2.16230000     -3.40240000       7
H              -0.45377300      2.33781000     -3.46249000       1
I               0.77851900     -1.32950000     -3.97470000      53
H              -2.98859000     -2.78786000      1.57224000       1
H              -2.35401000     -0.64660500     -3.75217000       1
C              -3.01428000     -2.20604000      2.49648000       6
H              -2.67051000     -2.19346000     -2.89960000       1
I              -0.75449900     -4.40345000     -0.68666900      53
P              -3.38350000      2.90613000     -0.81039100      15
N              -3.81175000     -0.97139900      2.25360000       7
C               1.69052000      3.36595000      2.81652000       6
I              -0.60871600      4.63240000     -0.68666900      53
H               4.14868000     -1.21804000      1.98690000       1
C              -3.10989000     -1.39335000     -3.49966000       6
H               2.30370000      2.70249000      3.43061000       1
H              -3.87651000     -0.39413800      3.11447000       1
H              -3.94183000     -0.92876200     -2.96545000       1
H               2.32279000      4.00252000      2.19354000       1
I              -0.53419600      0.99842500      5.00758000      53
I              -3.47440000      3.10514000      2.36317000      53
I               3.67896000     -3.53878000     -1.29691000      53
H              -4.78708000     -1.21804000      1.98690000       1
H               1.03862000      3.97455000      3.44721000       1
C               1.31344000      3.11918000     -4.26289000       6
I              -2.93606000      2.50731000     -3.95003000      53
H              -3.49551000     -2.77641000      3.29421000       1
H               2.38078000      2.90032000     -4.18336000       1
N               5.12400000     -0.97139900      2.25360000       7
H               5.56799000     -0.41770400      1.49249000       1
H               1.10440000      4.13290000     -3.91340000       1
P               1.30106000     -1.56228000      5.50092000      15
H               4.99393000     -0.92876200     -2.96545000       1
H               2.17701000     -5.03334000      2.19354000       1
H               5.05925000     -0.39413800      3.11447000       1
H               0.09847340     -5.90637000      1.31435000       1
H               0.97291800      2.99265000     -5.29326000       1
I              -6.05456000      1.05094000     -0.72293500      53
H               0.89283600     -5.06130000      3.44721000       1
N              -3.63170000     -1.98384000     -4.76581000       7
P               5.55226000      2.90613000     -0.81039100      15
H               0.95861800     -4.90296000     -3.91340000       1
I              -5.25680000     -3.53878000     -1.29691000      53
C               1.54474000     -5.66990000      2.81652000       6
H              -2.87855000     -2.44076000     -5.32295000       1
I               5.46136000      3.10514000      2.36317000      53
I              -1.22672000     -3.53927000      5.56991000      53
H               5.94717000     -2.78786000      1.57224000       1
C               5.92148000     -2.20604000      2.49648000       6
I               3.97437000      0.31630300      5.52621000      53
N               0.69151000     -6.50695000      1.92375000       7
I               3.82475000      5.49707000     -1.29691000      53
H              -4.06148000     -1.25788000     -5.37858000       1
H              -4.35692000     -2.69800000     -4.58019000       1
C               5.82587000     -1.39335000     -3.49966000       6
H               5.44025000     -2.77641000      3.29421000       1
P              -3.03853000      2.91585000      5.53355000      15
H               4.57884000     -2.69800000     -4.58019000       1
H              -2.84281000      6.24799000      1.57224000       1
P              -3.52928000     -6.12972000     -0.81039100      15
H               0.72956000     -6.78602000     -2.41473000       1
H               6.26525000     -2.19346000     -2.89960000       1
H               1.27837000     -7.08704000      1.28976000       1
I              -3.62018000     -5.93072000      2.36317000      53
H               4.87428000     -1.25788000     -5.37858000       1
C               1.16766000     -5.91667000     -4.26289000       6
N               5.30406000     -1.98384000     -4.76581000       7
I               7.40250000      0.17142600     -0.37066400      53
P               1.23448000      7.26532000     -0.81234400      15
I              -4.96139000      0.31630300      5.52621000      53
P               1.07121000     -1.67677000     -7.16574000      15
H               2.15792000     -6.33337000      3.43061000       1
H               0.08509050     -7.12644000      2.49844000       1
H              -0.59955600     -6.69804000     -3.46249000       1
H               6.58175000     -0.64660500     -3.75217000       1
I               5.99970000      2.50731000     -3.95003000      53
I              -5.11101000      5.49707000     -1.29691000      53
N               0.42603600     -6.87355000     -3.40240000       7
H               6.93163000     -1.91278000      2.79133000       1
I               1.75799000      7.15218000      2.32914000      53
I              -0.76404600      0.88393100     -7.65907000      53
H               2.23499000     -6.13554000     -4.18336000       1
C              -2.86850000      6.82982000      2.49648000       6
H              -3.34973000      6.25944000      3.29421000       1
H              -2.52473000      6.84240000     -2.89960000       1
H              -7.51160000      1.94882000      1.28976000       1
H              -1.85835000      7.12308000      2.79133000       1
I              -1.08094000      5.49659000      5.56991000      53
I               3.30578000     -4.06706000      5.92702000      53
I              -7.32355000     -1.88367000      2.32914000      53
H              -6.63206000      2.70249000      3.43061000       1
H              -6.61297000      4.00252000      2.19354000       1
I               3.74452000      0.20180900     -7.14045000      53
H               0.82713500     -6.04321000     -5.29326000       1
P              -7.84706000     -1.77054000     -0.81234400      15
H               1.20277000      3.10714000      7.37340000       1
I              -1.45657000     -3.65376000     -7.09675000      53
H              -2.64870000     -2.32627000      7.34370000       1
P               5.40648000     -6.12972000     -0.81039100      15
I              -3.08185000     -6.52854000     -3.95003000      53
H              -6.55498000      2.90032000     -4.18336000       1
I               5.31558000     -5.93072000      2.36317000      53
H              -3.83163000     -1.14338000      7.28807000       1
P              -3.26838000      2.80136000     -7.13310000      15
H               6.05721000     -2.44076000     -5.32295000       1
I               3.45156000      4.96879000      5.92702000      53
C              -7.24524000      3.36595000      2.81652000       6
I               2.73542000     -7.98492000     -0.72293500      53
I               3.07593000     -4.18156000     -6.73963000      53
P               5.89723000      2.91585000      5.53355000      15
N              -8.09847000      2.52891000      1.92375000       7
H               0.58977400     -7.86089000     -3.69542000       1
H              -6.75875000     -5.03334000      2.19354000       1
H              -8.06042000      2.24983000     -2.41473000       1
I               0.92430200      7.70636000     -3.97470000      53
N              -3.40185000     -1.86935000      7.90085000       7
I              -5.19124000      0.20180900     -7.14045000      53
I               1.00837000     -1.21500000      8.69195000      53
P              -3.18432000     -6.12001000      5.53355000      15
H               6.09295000      6.24799000      1.57224000       1
H              -4.21114000      6.33785000     -4.58019000       1
H              -2.73277000      6.59509000     -5.32295000       1
I               3.22171000      4.85430000     -6.73963000      53
C              -2.96411000      7.64251000     -3.49966000       6
H               5.10413000     -1.14338000      7.28807000       1
I              -1.31079000      5.38209000     -7.09675000      53
H               5.58603000      6.25944000      3.29421000       1
I              -1.67904000     -8.86443000     -0.37066400      53
H              -8.20020000      1.17497000     -3.69542000       1
H               0.96540700      1.28946000      8.97123000       1
I              -5.62998000     -4.06706000      5.92702000      53
C               1.54329000      3.23368000      8.40376000       6
H               4.72462000      6.33785000     -4.58019000       1
H               4.29446000      7.81782000      1.98690000       1
N              -3.66597000      8.06446000      2.25360000       7
I              -8.15724000     -1.32950000     -3.97470000      53
H              -2.12416000     -0.53211200      8.91448000       1
N              -3.48591000      7.05201000     -4.76581000       7
H              -8.70489000      1.90941000      2.49844000       1
C              -7.62232000      3.11918000     -4.26289000       6
N              -8.36394000      2.16230000     -3.40240000       7
H              -4.64130000      7.81782000      1.98690000       1
I               8.18126000     -4.40345000     -0.68666900      53
I              -1.38748000      9.20728000     -0.37066400      53
H              -3.22199000      8.61815000      1.49249000       1
H              -8.69150000      3.12948000      1.31435000       1
H               2.61063000      3.01481000      8.48329000       1
P               1.44685000      7.47358000      5.50092000      15
H              -3.79605000      8.10709000     -2.96545000       1
H              -4.12707000     -2.58351000      8.08646000       1
H              -2.20822000      8.38925000     -3.75217000       1
H               8.48199000      2.33781000     -3.46249000       1
C               6.06726000      6.82982000      2.49648000       6
I              -5.48420000      4.96879000      5.92702000      53
H              -7.89714000      3.97455000      3.44721000       1
I              -0.67997900     -8.03743000      5.00758000      53
I              -2.70621000      2.62181000      8.71663000      53
H               1.05698000     -5.92872000      7.37340000       1
H              -0.22392300      2.45231000      9.20416000       1
P               5.66738000      2.80136000     -7.13310000      15
P              -7.63469000     -1.56228000      5.50092000      15
I               8.32704000      4.63240000     -0.68666900      53
N               0.80166900      2.27680000      9.26425000       7
I               5.85391000     -6.52854000     -3.95003000      53
H              -7.83136000      4.13290000     -3.91340000       1
H               9.16663000      1.90941000      2.49844000       1
C              -2.88004000     -1.27885000      9.16699000       6
C              -7.39102000     -5.66990000      2.81652000       6
H               4.80869000     -2.58351000      8.08646000       1
H               9.18002000      3.12948000      1.31435000       1
H               2.07385000      2.58799000     -9.23605000       1
H               6.41103000      6.84240000     -2.89960000       1
H               1.33425000      4.24739000      8.75326000       1
N               5.53391000     -1.86935000      7.90085000       7
I               8.40156000      0.99842500      5.00758000      53
I              -5.85983000     -4.18156000     -6.73963000      53
H              -6.77784000     -6.33337000      3.43061000       1
N               5.26979000      8.06446000      2.25360000       7
H              -3.73073000      8.64172000      3.11447000       1
H               6.28706000     -2.32627000      7.34370000       1
H              -6.70077000     -6.13554000     -4.18336000       1
H              -7.96284000      2.99265000     -5.29326000       1
H               0.80876900      3.86006000     -9.21944000       1
H               5.13971000      8.10709000     -2.96545000       1
H               1.18847000     -4.78846000      8.75326000       1
P               5.75144000     -6.12001000      5.53355000      15
P              -3.41417000     -6.23450000     -7.13310000      15
I              -5.71405000      4.85430000     -6.73963000      53
N               5.44985000      7.05201000     -4.76581000       7
