200
cutoff_factor=1.20000000 nneightol=1.20000000 Lattice="29.44950000       0.00000000       0.00000000       0.00000000      29.19996000       0.00000000       0.00000000       0.00000000      28.37930000" Properties=species:S:1:pos:R:3:Z:I:1
I              -0.93750200      0.39509600      0.22499400      53
P               1.66689000     -1.12165000      1.31319000      15
H              -1.18856000     -2.53633000     -1.37966000       1
H               0.64788700     -0.04967770     -3.30128000       1
H              -2.32653000      0.57750400      2.36819000       1
H               2.24670000      0.32906300     -2.58264000       1
H              -2.40150000     -1.57786000     -2.02745000       1
I               1.55162000     -2.94758000     -1.30926000      53
C               1.51468000      0.61394000     -3.34009000       6
I               3.58438000      1.03237000     -0.07985690      53
N              -2.11228000     -2.55902000     -1.85249000       7
H               1.21003000      1.65211000     -3.20657000       1
H               1.50279000      3.59797000      0.01522570       1
P              -2.80967000      2.55747000     -1.32750000      15
H               1.21881000      3.04815000      2.36507000       1
I               1.62025000      0.84599700      3.86288000      53
H              -3.24270000     -2.82183000     -0.09437470       1
I              -0.16530000     -3.16753000      3.01368000      53
N              -3.04038000      0.54604500      3.12858000       7
H               0.00467382      4.11181000      1.86323000       1
H              -1.94796000     -2.99433000     -2.78681000       1
N               1.02789000      4.01466000      2.02957000       7
H              -3.56984000     -0.34145700      2.98081000       1
C              -3.12671000     -3.31459000     -1.06131000       6
I              -0.23948300      4.00009000     -2.52399000      53
C               1.79797000      4.31480000      0.78465800       6
I              -2.88575000      0.52222500     -3.84244000      53
H              -1.74722000     -0.30670200      4.56474000       1
H              -3.68965000      1.33443000      2.99008000       1
C              -2.40392000      0.56235300      4.48099000       6
H              -1.82860000      1.48379000      4.58036000       1
N               2.15388000      0.48059900     -4.68068000       7
H               2.86351000      4.21882000      1.00550000       1
H              -2.76939000     -4.33824000     -0.92910200       1
I              -2.60746000      4.38748000      1.33432000      53
I              -5.34768000      1.03237000     -0.07985690      53
H               2.51191000     -0.48968100     -4.82610000       1
H              -4.07065000     -3.30724000     -1.61093000       1
I               4.27252000     -2.56314000      2.50356000      53
H               1.56220000      5.33353000      0.46893700       1
H               1.30053000      4.65488000      2.79729000       1
H               1.47260000      0.65768600     -5.45075000       1
H               2.95826000      1.11756000     -4.78139000       1
I              -4.65953000     -2.56314000      2.50356000      53
H               1.57691000     -5.65333000      0.46893700       1
H               1.38097000     -2.86869000      5.05924000       1
H               4.86140000     -3.30724000     -1.61093000       1
I              -0.89479100     -3.33178000     -5.05083000      53
H               5.36221000     -0.34145700      2.98081000       1
H              -3.19235000      0.51868300      5.23470000       1
H               5.24241000      1.33443000      2.99008000       1
H               5.68935000     -2.82183000     -0.09437470       1
P               1.72349000     -4.88965000     -3.92763000      15
N               5.89167000      0.54604500      3.12858000       7
P               6.12239000      2.55747000     -1.32750000      15
C               5.80534000     -3.31459000     -1.06131000       6
P              -2.83069000     -4.75518000      3.93146000      15
H               2.86663000     -2.40881000      5.72861000       1
I               4.24252000      4.63492000     -2.78808000      53
N               2.06225000     -3.04577000      5.82931000       7
I              -1.00113000      4.12870000      5.45916000      53
C               1.81268000     -6.67205000      0.78465800       6
H              -1.65560000      3.21967000     -5.94525000       1
H               6.53056000     -1.57786000     -2.02745000       1
H               6.60552000      0.57750400      2.36819000       1
H               1.31524000     -6.33198000      2.79729000       1
I               3.48480000     -2.69183000     -5.56160000      53
H               0.01938530     -6.87505000      1.86323000       1
I              -4.68953000      4.63492000     -2.78808000      53
H              -6.68536000      0.32906300     -2.58264000       1
I               6.04630000      0.52222500     -3.84244000      53
I              -2.59275000     -6.59938000      1.33432000      53
P              -2.73907000     -1.22881000     -6.57854000      15
P               1.61715000      2.57084000      6.58237000      15
H              -2.78410000      6.64862000     -0.92910200       1
H              -3.10072000      4.04506000     -5.27530000       1
N               1.04260000     -6.97219000      2.02957000       7
H               2.42029000     -4.01605000      5.68389000       1
H               2.87822000     -6.76804000      1.00550000       1
I              -0.22477200     -6.98677000     -2.52399000      53
P               1.70877000      6.09721000     -3.92763000      15
H              -6.06854000      4.21882000      1.00550000       1
P              -7.26517000     -1.12165000      1.31319000      15
I              -0.07367290      0.35884700     -7.49631000      53
N               6.81978000     -2.55902000     -1.85249000       7
H               1.51750000     -7.38888000      0.01522570       1
H               6.16266000     -4.33824000     -0.92910200       1
H               1.11841000     -1.87427000      7.30343000       1
C              -2.31229000      4.08873000     -6.02901000       6
I               3.37846000      4.76865000      4.94840000      53
H              -5.97380000      1.11756000     -4.78139000       1
H               5.73971000      0.51868300      5.23470000       1
I               6.32459000      4.38748000      1.33432000      53
C               1.42305000     -2.91243000      7.16990000       6
I              -2.97738000     -3.00415000      6.66755000      53
P              -2.84541000      6.23168000      3.93146000      15
C               6.52814000      0.56235300      4.48099000       6
H              -1.73697000      5.01017000     -5.92963000       1
I              -0.33111000      0.47371300      7.98601000      53
I               7.99455000      0.39509600      0.22499400      53
H              -6.42014000     -0.48968100     -4.82610000       1
I              -7.38044000     -2.94758000     -1.30926000      53
H               0.55626000     -3.57605000      7.20871000       1
H               6.98410000     -2.99433000     -2.78681000       1
I               1.71188000      4.37237000     -6.64712000      53
I               4.25723000     -6.35194000     -2.78808000      53
C              -7.41738000      0.61394000     -3.34009000       6
I              -5.44726000     -2.69183000     -5.56160000      53
N              -6.77818000      0.48059900     -4.68068000       7
H              -7.42927000      3.59797000      0.01522570       1
H               7.74349000     -2.53633000     -1.37966000       1
I               1.53691000      8.03928000     -1.30926000      53
I              -7.31181000      0.84599700      3.86288000      53
H               1.40687000     -2.80561000     -7.71271000       1
C              -3.14143000      7.67226000     -1.06131000       6
I              -4.67482000     -6.35194000     -2.78808000      53
C              -7.13409000      4.31480000      0.78465800       6
H               1.23352000     -7.93870000      2.36507000       1
I              -0.18001200      7.81933000      3.01368000      53
H               7.18483000     -0.30670200      4.56474000       1
H              -7.72202000      1.65211000     -3.20657000       1
H               7.10345000      1.48379000      4.58036000       1
H              -1.72226000     -5.97669000     -5.92963000       1
H              -7.71325000      3.04815000      2.36507000       1
I               3.39317000     -6.21821000      4.94840000      53
H              -1.20328000      8.45053000     -1.37966000       1
P               6.10136000     -4.75518000      3.93146000      15
H              -6.06542000     -2.40881000      5.72861000       1
H              -1.96267000      7.99252000     -2.78681000       1
H              -3.25741000      8.16503000     -0.09437470       1
H               2.15507000     -3.19731000      7.92736000       1
I              -0.98641800     -6.85815000      5.45916000      53
I              -5.55360000      4.76865000      4.94840000      53
I               4.15089000      1.10855000      7.72192000      53
H               5.83134000      4.04506000     -5.27530000       1
H              -4.08537000      7.67962000     -1.61093000       1
H              -3.47822000      3.18492000     -7.52918000       1
N              -2.12699000      8.42784000     -1.85249000       7
H              -8.28417000     -0.04967770     -3.30128000       1
N              -2.94875000      4.07242000     -7.38142000       7
P              -2.79495000     -8.42939000     -1.32750000      15
N              -7.90417000      4.01466000      2.02957000       7
H               6.14795000      6.64862000     -0.92910200       1
H              -7.36986000      5.33353000      0.46893700       1
P               6.19299000     -1.22881000     -6.57854000      15
H              -6.05383000     -6.76804000      1.00550000       1
I              -4.78116000      1.10855000      7.72192000      53
H              -2.05430000      4.46615000      7.72319000       1
I               4.36415000      0.96323600     -8.00643000      53
I              -0.90950200      7.65508000     -5.05083000      53
H               4.84669000      7.67962000     -1.61093000       1
N               1.13423000     -3.44582000     -8.48043000       7
I               6.33931000     -6.59938000      1.33432000      53
H              -3.08601000     -6.94180000     -5.27530000       1
H              -7.45945000      0.65768600     -5.45075000       1
I              -4.56791000      0.96323600     -8.00643000      53
H               0.11101300     -3.34867000     -8.64677000       1
H              -7.35514000     -5.65333000      0.46893700       1
H               2.40557000      6.97080000      5.68389000       1
H               1.32515000     -4.41233000     -8.14493000       1
H              -7.63153000      4.65488000      2.79729000       1
H              -2.23491000      4.10388000     -8.14181000       1
I               5.95468000     -3.00415000      6.66755000      53
C              -2.29758000     -6.89813000     -6.02901000       6
N              -6.86981000     -3.04577000      5.82931000       7
H              -6.51177000     -4.01605000      5.68389000       1
H              -7.55108000     -2.86869000      5.05924000       1
I               1.72659000     -6.61449000     -6.64712000      53
P              -7.20857000     -4.88965000     -3.92763000      15
P               6.08665000      6.23168000      3.93146000      15
H              -3.59802000      4.86080000     -7.51992000       1
H               1.36626000      8.11817000      5.05924000       1
P               1.75851000      2.40473000     -9.19681000      15
C               5.79063000      7.67226000     -1.06131000       6
P              -2.90129000     -0.96890800      9.18249000      15
I              -5.53888000     -6.21821000      4.94840000      53
I               4.25781000      8.42372000      2.50356000      53
C              -7.11938000     -6.67205000      0.78465800       6
I               8.76675000     -3.16753000      3.01368000      53
H               5.45384000      3.18492000     -7.52918000       1
C               6.61976000      4.08873000     -6.02901000       6
I              -9.86956000      0.39509600      0.22499400      53
I               8.69257000      4.00009000     -2.52399000      53
H              -1.64089000     -7.76719000     -5.94525000       1
H              -2.41621000      9.40900000     -2.02745000       1
H               7.27646000      3.21967000     -5.94525000       1
H               5.67464000      8.16503000     -0.09437470       1
H               1.22474000     -9.33475000     -3.20657000       1
I              -4.67424000      8.42372000      2.50356000      53
I              -2.50112000     -3.07301000     -9.17567000      53
H              -8.92738000      4.11181000      1.86323000       1
H               8.93673000      4.11181000      1.86323000       1
I               8.03726000     -3.33178000     -5.05083000      53
N               2.04754000      7.94108000      5.82931000       7
P               1.65217000      9.86521000      1.31319000      15
I              -9.09735000     -3.16753000      3.01368000      53
H               9.57994000     -0.04967770     -3.30128000       1
P              -7.31491000      2.57084000      6.58237000      15
N              -2.21862000      4.90147000      8.65751000       7
H              -2.49312000     -5.10423000      8.48255000       1
