200
cutoff_factor=1.20000000 nneightol=1.20000000 Lattice="28.55736000       0.00000000       0.00000000       0.00000000      28.91841000       0.00000000       0.00000000       0.00000000      29.05608000" Properties=species:S:1:pos:R:3:Z:I:1
H               0.10539700     -1.12380000      1.27121000       1
H              -0.31825400      1.26508000      1.21483000       1
C               0.30216900     -0.50024100      2.14608000       6
N              -0.55700400      0.71854800      2.06162000       7
I              -1.72905000      0.44238600     -1.74705000      53
H               1.34789000     -0.18514700      2.16490000       1
H              -1.56435000      0.45807500      2.02199000       1
H              -0.40675200      1.33563000      2.88585000       1
H               0.05044750     -1.03675000      3.06327000       1
I               2.70500000     -0.21651300     -2.34786000      53
H              -0.74390900      2.66888000     -2.45352000       1
I               1.72755000      3.26090000      0.41257300      53
P               0.09262120     -1.81629000     -3.25922000      15
I               0.31858600     -3.68131000     -0.65990600      53
H               0.35143400      3.71297000     -1.76481000       1
N              -0.27870900      3.59419000     -2.58521000       7
H              -3.02676000     -3.36740000     -0.72564900       1
I              -4.18862000      0.04405860      1.94965000      53
P               4.39311000      1.84159000     -0.64901000      15
P              -4.45598000      1.84159000     -0.64901000      15
H               1.24894000      2.82687000     -3.82376000       1
I              -2.64896000      4.11163000      0.73295600      53
I               4.66048000      0.04405860      1.94965000      53
H              -4.30859000     -2.63446000      0.29512700       1
H              -1.00102000      4.32994000     -2.56394000       1
H               2.94853000     -4.17342000     -0.66941700       1
C              -4.08692000     -3.11191000     -0.66180200       6
I              -1.80133000     -3.38984000      3.48600000      53
H              -4.37123000     -2.46150000     -1.49119000       1
H               4.54051000     -2.63446000      0.29512700       1
C               0.49614900      3.61759000     -3.86185000       6
H               4.47786000     -2.46150000     -1.49119000       1
I              -0.25435400      3.49330000      4.49192000      53
C               4.76218000     -3.11191000     -0.66180200       6
I               2.63144000     -4.11813000      3.11926000      53
H              -0.19463800      3.44421000     -4.68794000       1
P              -0.02547240     -5.47351000      1.98129000      15
P              -0.01930270      5.52638000      1.98129000      15
I               1.90396000     -0.35596100      5.54667000      53
I              -2.57063000     -3.30920000     -4.18220000      53
N               3.96722000     -4.37151000     -0.75598300       7
I              -0.27436400      0.01926680     -5.97349000      53
H              -4.21363000     -0.07333720     -4.31927000       1
H              -2.89006000      0.27664800     -5.31607000       1
H               0.97357700      4.59361000     -3.95790000       1
H               4.63546000     -0.07333720     -4.31927000       1
H               4.34211000      2.41701000      3.96286000       1
H              -4.50698000      2.41701000      3.96286000       1
H               3.10648000      3.66366000      4.33709000       1
N              -3.90432000      0.44993900     -5.16422000       7
I               1.88395000     -3.83000000     -4.91874000      53
P              -4.34851000     -1.86576000      4.55393000      15
H              -4.05283000      1.45752000     -4.97042000       1
I              -6.14410000     -0.21651300     -2.34786000      53
H               4.25817000     -5.02061000      0.00193377       1
H               4.14559000     -4.84993000     -1.65833000       1
N              -4.88188000     -4.37151000     -0.75598300       7
I              -4.41821000      3.74904000     -3.26188000      53
I               4.43089000      3.74904000     -3.26188000      53
P               4.50059000     -1.86576000      4.55393000      15
H               5.82233000     -3.36740000     -0.72564900       1
I              -2.55062000      0.16483900      6.28321000      53
H              -4.37003000      4.06071000      3.25278000       1
H              -4.59093000     -5.02061000      0.00193377       1
C               4.16220000      3.48223000      4.12302000       6
H               3.08647000      0.18962300     -6.12832000       1
H               4.47906000      4.06071000      3.25278000       1
H              -4.70350000     -4.84993000     -1.65833000       1
H              -2.87005000      3.75068000      5.14933000       1
H               4.79627000      1.45752000     -4.97042000       1
H              -0.18079800     -4.08164000      5.77747000       1
C              -4.68689000      3.48223000      4.12302000       6
N               4.94478000      0.44993900     -5.16422000       7
H               0.98741700     -2.93225000      6.50751000       1
H              -1.00719000     -6.66995000     -2.56394000       1
H              -5.90056000     -4.17342000     -0.66941700       1
H               4.26434000      5.97928000      0.00193377       1
I               7.12004000      0.44238600     -1.74705000      53
I               0.32475600      7.31858000     -0.65990600      53
P               0.11263100      1.65775000      7.20619000      15
I              -2.65513000     -6.88826000      0.73295600      53
H               2.95470000      6.82647000     -0.66941700       1
I               6.20013000      4.11163000      0.73295600      53
H               0.34526400     -7.28692000     -1.76481000       1
H              -4.58476000      5.97928000      0.00193377       1
H               7.28474000      0.45807500      2.02199000       1
C               4.14219000      0.00819478     -6.34239000       6
H               0.96740800     -6.40628000     -3.95790000       1
H               4.15176000      6.14996000     -1.65833000       1
N              -3.88431000      3.92398000      5.30119000       7
C               0.50998900     -3.90827000      6.60356000       6
N               3.97338000      6.62837000     -0.75598300       7
H              -7.50120000     -0.18514700      2.16490000       1
I              -7.12154000      3.26090000      0.41257300      53
N              -0.28487800     -7.40570000     -2.58521000       7
H               4.32210000     -1.05703000     -6.50255000       1
H              -0.42676200     -2.13840000     -7.57956000       1
C              -4.70690000      0.00819478     -6.34239000       6
H              -4.69733000      6.14996000     -1.65833000       1
I               1.72138000     -7.73899000      0.41257300      53
H               5.95903000      0.27664800     -5.31607000       1
H              -4.52699000     -1.05703000     -6.50255000       1
I               2.63761000      6.88176000      3.11926000      53
H              -5.74261000      3.66366000      4.33709000       1
I              -6.21765000     -4.11813000      3.11926000      53
H              -4.19362000      3.40070000      6.14614000       1
H               1.26278000     -4.69898000      6.64165000       1
I               6.27847000     -3.30920000     -4.18220000      53
H              -3.02059000      7.63249000     -0.72564900       1
N               4.96479000      3.92398000      5.30119000       7
N              -4.87571000      6.62837000     -0.75598300       7
I              -1.81517000      4.13601000     -6.97941000      53
C               0.48998000     -7.38230000     -3.86185000       6
H              -4.03282000      4.93156000      5.49499000       1
H              -5.76262000      0.18962300     -6.12832000       1
H               4.65547000      3.40070000      6.14614000       1
H              -4.39004000      0.58667100     -7.21263000       1
H               4.45905000      0.58667100     -7.21263000       1
I               2.61760000      3.40773000     -7.34614000      53
I              -1.79516000      7.61005000      3.48600000      53
I               7.04776000     -3.38984000      3.48600000      53
N               8.29209000      0.71854800      2.06162000       7
H              -0.98717700     -3.19592000      7.90147000       1
H               0.03043790     -4.51079000     -7.40214000       1
H               8.53084000      1.26508000      1.21483000       1
H              -0.75007900     -8.33101000     -2.45352000       1
P              -0.03931230      2.05234000     -8.48412000      15
H               5.97904000      3.75068000      5.14933000       1
I              -0.26052400     -7.50659000      4.49192000      53
N              -0.26486900     -3.93167000      7.88020000       7
H               4.81628000      4.93156000      5.49499000       1
H              -4.37620000     -6.93918000      3.25278000       1
C              -8.54693000     -0.50024100      2.14608000       6
N              -0.57701400     -2.75549000     -8.40379000       7
H               4.47289000     -6.93918000      3.25278000       1
H               8.10519000      2.66888000     -2.45352000       1
H              -0.20080800     -7.55568000     -4.68794000       1
I              -6.94513000     -0.35596100      5.54667000      53
I               1.89012000      7.16989000     -4.91874000      53
I               6.29848000      0.16483900      6.28321000      53
C              -4.08075000      7.88798000     -0.66180200       6
H              -8.74370000     -1.12380000      1.27121000       1
H              -7.60016000      2.82687000     -3.82376000       1
H              -0.17462800      6.91825000      5.77747000       1
H               8.44234000      1.33563000      2.88585000       1
H              -5.89439000      6.82647000     -0.66941700       1
H               3.10031000     -7.33623000      4.33709000       1
P              -4.36851000     -5.33979000     -5.91148000      15
I              -4.42438000     -7.25085000     -3.26188000      53
I               4.42472000     -7.25085000     -3.26188000      53
H              -1.58436000     -3.01596000     -8.44342000       1
H               1.24277000     -8.17302000     -3.82376000       1
H               8.95449000     -1.12380000      1.27121000       1
I              -2.56446000      7.69069000     -4.18220000      53
H              -4.03899000     -6.06833000      5.49499000       1
P               4.48058000     -5.33979000     -5.91148000      15
I               2.72501000      3.25752000      8.11755000      53
H               1.32788000     -3.65918000     -8.30051000       1
C               0.28215900     -3.97428000     -8.31932000       6
C               4.76835000      7.88798000     -0.66180200       6
H               1.26895000      6.30091000      6.64165000       1
I              -4.40437000     -3.77681000      7.20353000      53
I               4.44473000     -3.77681000      7.20353000      53
P              -4.36235000      5.66010000     -5.91148000      15
I               6.19396000     -6.88826000      0.73295600      53
I              -8.53051000     -3.68131000     -0.65990600      53
H               7.84808000      4.32994000     -2.56394000       1
P               4.48675000      5.66010000     -5.91148000      15
H              -9.16735000      1.26508000      1.21483000       1
H              -2.87622000     -7.24921000      5.14933000       1
I              -6.96514000     -3.83000000     -4.91874000      53
H              -8.79865000     -1.03675000      3.06327000       1
H              -0.73006900     -4.85697000      8.01189000       1
H              -4.30242000      8.36543000      0.29512700       1
C               9.15126000     -0.50024100      2.14608000       6
H              -8.49766000      3.71297000     -1.76481000       1
H               8.89954000     -1.03675000      3.06327000       1
H               4.81011000     -6.06833000      5.49499000       1
H               0.36527400     -3.81288000      8.70060000       1
H              -0.33826300     -2.20895000     -9.25058000       1
P              -8.75647000     -1.81629000     -3.25922000      15
H               4.54668000      8.36543000      0.29512700       1
C               4.15603000     -7.51766000      4.12302000       6
H               5.82850000      7.63249000     -0.72564900       1
N               8.57039000      3.59419000     -2.58521000       7
N              -9.40610000      0.71854800      2.06162000       7
N              -3.89048000     -7.07591000      5.30119000       7
P               8.94172000     -1.81629000     -3.25922000      15
C               0.51615900      7.09162000      6.60356000       6
H              -4.36506000      8.53839000     -1.49119000       1
I              -1.70904000      3.91642000      8.71836000      53
P               0.09879090      9.18360000     -3.25922000      15
H               4.48403000      8.53839000     -1.49119000       1
C              -4.69306000     -7.51766000      4.12302000       6
I              -6.21148000      6.88176000      3.11926000      53
H              -9.25585000      1.33563000      2.88585000       1
I               0.33859600     -0.20727200      9.80550000      53
H              -0.32442300     -9.73481000      1.21483000       1
H               4.16560000     -1.37590000      8.80707000       1
H               0.03660760      6.48910000     -7.40214000       1
