200
cutoff_factor=1.20000000 nneightol=1.20000000 Lattice="28.97245000       0.00000000       0.00000000       0.00000000      28.72609000       0.00000000       0.00000000       0.00000000      29.25758000" Properties=species:S:1:pos:R:3:Z:I:1
I              -0.30260500     -0.35872800     -0.12692300      53
H               0.74521900      1.16199000      2.22555000       1
H               2.05792000      1.44927000     -1.80025000       1
P              -2.78484000      1.62911000     -0.00286470      15
P               1.61651000     -2.87562000      0.03106780      15
H               0.57570900      1.71172000     -2.77708000       1
C               1.62985000      1.59931000      2.69230000       6
C               1.62556000      1.41066000     -2.80272000       6
H               1.72516000      0.40706400     -3.22241000       1
H               2.43193000      0.86097200      2.76116000       1
H              -1.62871000     -1.72136000     -2.97969000       1
H               1.96143000      2.47626000      2.13400000       1
H              -1.88857000     -3.00092000      2.15952000       1
I              -0.85581900      4.18843000     -0.06789190      53
I               4.23569000     -0.96743800      0.06763170      53
H              -2.92496000     -1.05598000      3.20116000       1
I              -2.68796000      1.51930000      3.22716000      53
I               1.63949000     -2.80307000      3.23047000      53
H              -3.58411000     -2.38200000     -1.70956000       1
I              -2.92712000      1.68514000     -3.22658000      53
N               1.26363000      2.03505000      4.07227000       7
H              -2.47278000     -3.63155000     -1.75170000       1
I               1.88524000     -2.94678000     -3.20307000      53
C              -2.38172000     -2.36950000     -3.43401000       6
I              -4.72663000     -0.96743800      0.06763170      53
I              -0.94342500     -4.79172000     -0.06789190      53
H               0.91343300      1.24148000      4.65351000       1
H               0.51221300      2.74308000      4.06487000       1
N              -3.12222000     -3.06932000     -2.34519000       7
N               2.36992000      2.36431000     -3.67637000       7
C              -2.37989000     -3.09375000      3.13004000       6
N              -3.37596000     -1.99239000      3.25674000       7
I               3.65583000      3.56772000      0.01991970      53
H              -4.07792000     -2.01575000      2.49172000       1
H              -1.65038000     -2.99141000      3.93585000       1
H               2.28938000      3.33595000     -3.31612000       1
H              -3.09495000     -1.77817000     -4.01295000       1
H               3.37843000      2.11396000     -3.71766000       1
H              -1.90613000     -3.12140000     -4.06802000       1
H               1.97961000      2.36820000     -4.64043000       1
H               2.07052000      2.45009000      4.58772000       1
H               4.88440000     -2.01575000      2.49172000       1
H              -2.90499000     -4.04871000      3.20545000       1
H              -3.85393000     -3.68897000     -2.72259000       1
H              -3.87060000     -2.01619000      4.17323000       1
H              -2.38517000      5.34860000     -1.75170000       1
H               5.37820000     -2.38200000     -1.70956000       1
P               1.70412000      6.10453000      0.03106780      15
P               6.17747000      1.62911000     -0.00286470      15
I              -5.30648000      3.56772000      0.01991970      53
I              -0.15904800     -0.17148100      6.46207000      53
I               3.56822000     -5.41243000      0.01991970      53
H              -2.81738000      4.93144000      3.20545000       1
I              -0.75785500     -0.91887400     -6.45159000      53
H              -1.80096000      5.97923000      2.15952000       1
N               5.58635000     -1.99239000      3.25674000       7
H               5.10838000     -3.68897000     -2.72259000       1
H               5.09171000     -2.01619000      4.17323000       1
H               2.20178000     -5.64420000     -3.31612000       1
H               6.03735000     -1.05598000      3.20116000       1
N               5.84010000     -3.06932000     -2.34519000       7
H              -5.58389000      2.11396000     -3.71766000       1
H              -3.76633000      5.29119000     -2.72259000       1
N              -3.03461000      5.91083000     -2.34519000       7
I               6.03520000      1.68514000     -3.22658000      53
C              -2.29228000      5.88640000      3.13004000       6
H               1.87382000     -6.50389000      2.13400000       1
I               1.97285000      6.03337000     -3.20307000      53
P              -2.56482000      1.75673000     -6.40651000      15
H              -6.53039000      0.86097200      2.76116000       1
I               1.72710000      6.17708000      3.23047000      53
P               1.85175000     -2.70668000     -6.39066000      15
I               6.27435000      1.51930000      3.22716000      53
P               1.63306000     -2.82178000      6.44536000      15
P              -2.82508000      1.69496000      6.46120000      15
H              -6.90440000      1.44927000     -1.80025000       1
I               0.14774800      3.50433000     -6.38872000      53
H               5.86736000     -1.77817000     -4.01295000       1
H              -1.56277000      5.98874000      3.93585000       1
H              -1.81852000      5.85875000     -4.06802000       1
H               0.42460700     -6.23707000      4.06487000       1
I               3.75752000     -0.14369700     -6.54686000      53
H               6.48953000     -3.63155000     -1.75170000       1
I              -5.39409000     -5.41243000      0.01991970      53
H              -3.49650000      6.59815000     -1.70956000       1
I              -0.91931100      4.25794000      6.30501000      53
H              -7.00089000      2.47626000      2.13400000       1
C               6.58059000     -2.36950000     -3.43401000       6
C              -2.29411000      6.61065000     -3.43401000       6
H               0.48810200     -7.26843000     -2.77708000       1
I               4.34562000     -1.07418000      6.46314000      53
P              -7.34580000     -2.87562000      0.03106780      15
P              -2.87245000     -7.35104000     -0.00286470      15
H               5.19599000      5.29119000     -2.72259000       1
N               2.28231000     -6.61585000     -3.67637000       7
N              -6.59240000      2.36431000     -3.67637000       7
C               6.58243000     -3.09375000      3.13004000       6
H              -7.23715000      0.40706400     -3.22241000       1
I              -1.00692000     -4.72221000      6.30501000      53
H               6.05733000     -4.04871000      3.20545000       1
C              -7.33246000      1.59931000      2.69230000       6
C              -7.33675000      1.41066000     -2.80272000       6
H               7.07375000     -3.00092000      2.15952000       1
H               1.97031000     -7.53088000     -1.80025000       1
H              -1.54111000      7.25879000     -2.97969000       1
C               1.54225000     -7.38084000      2.69230000       6
I              -4.61669000     -1.07418000      6.46314000      53
I               3.52763000      3.48276000      6.40027000      53
H               7.33360000     -1.72136000     -2.97969000       1
N               1.17602000     -6.94510000      4.07227000       7
H               0.65761300     -7.81816000      2.22555000       1
H              -6.67293000      3.33595000     -3.31612000       1
C               1.53795000     -7.56949000     -2.80272000       6
H               1.98292000     -6.53006000      4.58772000       1
H               1.89200000     -6.61195000     -4.64043000       1
I              -7.07707000     -2.94678000     -3.20307000      53
I              -5.20479000     -0.14369700     -6.54686000      53
N              -3.28835000      6.98776000      3.25674000       7
H              -3.99031000      6.96440000      2.49172000       1
I               0.06014170     -5.47582000     -6.38872000      53
H               3.29082000     -6.86619000     -3.71766000       1
I              -7.32282000     -2.80307000      3.23047000      53
H               6.14493000      4.93144000      3.20545000       1
I              -3.01472000     -7.29501000     -3.22658000      53
I              -2.77556000     -7.46085000      3.22716000      53
H              -8.21709000      1.16199000      2.22555000       1
I              -0.21499800      8.62142000     -0.12692300      53
H              -6.89179000      2.45009000      4.58772000       1
H               6.57714000      5.34860000     -1.75170000       1
I               8.65971000     -0.35872800     -0.12692300      53
N               5.92770000      5.91083000     -2.34519000       7
H              -6.98271000      2.36820000     -4.64043000       1
H               7.05618000     -3.12140000     -4.06802000       1
H               5.46581000      6.59815000     -1.70956000       1
H              -2.21496000     -1.95154000     -8.26414000       1
H              -3.00734000      7.20198000     -4.01295000       1
H               7.31194000     -2.99141000      3.93585000       1
H               2.34432000     -8.11918000      2.76116000       1
I              -4.35692000      4.40703000     -6.38979000      53
H               4.97200000      6.96440000      2.49172000       1
N              -7.69868000      2.03505000      4.07227000       7
H              -2.78483000     -2.21031000      8.21144000       1
H              -3.78299000      6.96396000      4.17323000       1
H              -8.38660000      1.71172000     -2.77708000       1
H              -2.83736000      7.92417000      3.20116000       1
I               4.60539000      4.40703000     -6.38979000      53
I              -4.44453000     -4.57312000     -6.38979000      53
I               4.51778000     -4.57312000     -6.38979000      53
H               0.82582700     -7.73867000      4.65351000       1
P               6.13723000      1.69496000      6.46120000      15
P               1.72066000      6.15837000      6.44536000      15
I              -5.43469000      3.48276000      6.40027000      53
H               0.89383900      2.56233000     -8.67863000       1
I               4.32329000      8.01271000      0.06763170      53
I               3.44002000     -5.49739000      6.40027000      53
I               8.10649000      4.18843000     -0.06789190      53
P               1.93935000      6.27347000     -6.39066000      15
H               2.37935000      1.28023000      8.78385000       1
P               6.39750000      1.75673000     -6.40651000      15
I              -4.63902000      8.01271000      0.06763170      53
I              -9.26492000     -0.35872800     -0.12692300      53
H               1.19053000      2.62347000      8.83892000       1
H               1.63756000     -8.57309000     -3.22241000       1
I               8.01889000     -4.79172000     -0.06789190      53
I              -0.39021100     -9.33888000     -0.12692300      53
H              -8.04888000      1.24148000      4.65351000       1
H              -6.76054000     -5.64420000     -3.31612000       1
H              -3.37205000     -3.16016000     -8.19835000       1
C               6.67003000      5.88640000      3.13004000       6
P              -7.25820000      6.10453000      0.03106780      15
P               6.08986000     -7.35104000     -0.00286470      15
H              -1.38601000     -2.46455000      9.13420000       1
N               5.67396000      6.98776000      3.25674000       7
H               7.16135000      5.97923000      2.15952000       1
H               3.11406000      1.58711000     -8.91602000       1
N              -3.02185000     -2.36658000     -8.77960000       7
H               5.17932000      6.96396000      4.17323000       1
H              -5.67149000     -6.86619000     -3.71766000       1
H              -3.77327000     -1.65856000     -8.78700000       1
N              -2.39452000     -2.21421000      9.17550000       7
H              -8.45010000      2.74308000      4.06487000       1
I              -6.98946000      6.03337000     -3.20307000      53
C               1.90376000      2.03213000      9.41785000       6
H               1.85945000      0.52980600     -9.64642000       1
H              -7.08849000     -6.50389000      2.13400000       1
H              -2.47506000     -1.24256000      9.53575000       1
P              -7.11057000     -2.70668000     -6.39066000      15
I               5.94759000     -7.29501000     -3.22658000      53
C               6.66820000      6.61065000     -3.43401000       6
P              -2.65242000     -7.22342000     -6.40651000      15
H               9.70753000      1.16199000      2.22555000       1
N               1.38848000      2.58612000     -9.59513000       7
I              -7.23521000      6.17708000      3.23047000      53
H               9.53802000      1.71172000     -2.77708000       1
I              -5.52229000     -5.49739000      6.40027000      53
H               1.81277000      9.38721000     -3.22241000       1
H               7.14379000      5.85875000     -4.06802000       1
N              -6.68000000     -6.61585000     -3.67637000       7
I              -2.55838000      1.77545000     -9.62140000      53
C               2.38455000      1.48476000     -9.72183000       6
