200
cutoff_factor=1.20000000 nneightol=1.20000000 Lattice="29.30349000       0.00000000       0.00000000       0.00000000      27.36633000       0.00000000       0.00000000       0.00000000      28.52218000" Properties=species:S:1:pos:R:3:Z:I:1
I              -0.00959284     -1.62406000      0.16135200      53
H               0.84451900      1.67436000     -0.79640900       1
H              -0.85035000      1.69850000     -0.76187100       1
N               0.00515542      2.28801000     -0.80240400       7
H               0.05569740      2.73220000      1.26078000       1
H              -0.00401116      2.75479000     -1.73057000       1
C               0.04756020      3.27672000      0.31383500       6
H              -0.28505800     -2.13753000      2.86616000       1
P               3.19806000     -1.65531000      0.08928770      15
P              -3.23155000     -1.65531000      0.08928770      15
I               3.21272000      0.94340600     -1.82247000      53
I              -3.21689000      0.94340600     -1.82247000      53
H              -0.53593500     -0.94774200     -3.75239000       1
H               0.95430300      3.87558000      0.20740400       1
H              -0.83749200      3.91206000      0.24348300       1
I              -3.16115000      0.22825900      2.69734000      53
I               3.26846000      0.22825900      2.69734000      53
H               0.10786400     -0.36956800      4.46255000       1
N              -0.40225000     -2.33159000      3.87969000       7
C              -0.49511300     -1.71737000     -4.52648000       6
H               1.45969000     -2.35330000     -4.01158000       1
H              -1.40835000     -2.22889000      4.11435000       1
C               0.41635700     -1.39086000      4.69756000       6
H               1.46829000     -1.54059000      4.44517000       1
H              -0.95655900     -2.64177000     -4.17397000       1
H              -0.86629700     -5.07002000      0.24348300       1
H               0.92549800     -5.10650000      0.20740400       1
I              -0.00330551      2.91339000     -4.36179000      53
H              -0.14156400     -3.31949000      4.07619000       1
N               0.93357400     -2.00023000     -4.84149000       7
I               3.13986000     -3.51672000     -2.53753000      53
I              -3.28975000     -3.51672000     -2.53753000      53
I               0.05936450      3.00798000      4.55854000      53
H               1.43895000     -1.15887000     -5.19631000       1
I              -3.19600000     -4.22434000      1.93525000      53
I               3.23361000     -4.22434000      1.93525000      53
H              -0.98372000     -1.37129000     -5.43916000       1
C               0.01875460     -5.70536000      0.31383500       6
H               5.57926000      1.69850000     -0.76187100       1
H              -5.58509000      1.67436000     -0.79640900       1
H               0.24300900     -1.61092000      5.75336000       1
I              -3.16720000      4.75774000      1.93525000      53
I               3.26242000      4.75774000      1.93525000      53
P              -3.19907000      2.84843000     -4.45167000      15
P              -3.16352000      2.87521000      4.47415000      15
P               3.23054000      2.84843000     -4.45167000      15
P               3.26609000      2.87521000      4.47415000      15
H               1.03116000     -2.72160000     -5.57659000       1
H               0.02689190     -6.24989000      1.26078000       1
H              -0.03281670     -6.22729000     -1.73057000       1
I               6.42002000     -1.62406000      0.16135200      53
I              -6.43921000     -1.62406000      0.16135200      53
H              -5.47531000      3.87558000      0.20740400       1
N              -0.02365010     -6.69407000     -0.80240400       7
H              -4.96992000     -2.35330000     -4.01158000       1
I               3.16867000      5.46536000     -2.53753000      53
H               5.59212000      3.91206000      0.24348300       1
H              -4.96132000     -1.54059000      4.44517000       1
I              -3.26095000      5.46536000     -2.53753000      53
H               5.02126000     -2.22889000      4.11435000       1
N              -6.42446000      2.28801000     -0.80240400       7
N               6.43477000      2.28801000     -0.80240400       7
H              -0.11275900      5.66259000      4.07619000       1
H              -6.37392000      2.73220000      1.26078000       1
H               5.89368000     -0.94774200     -3.75239000       1
I               3.16639000      0.29770200     -6.32983000      53
H               6.14455000     -2.13753000      2.86616000       1
I              -3.26322000      0.29770200     -6.32983000      53
H               6.48531000      2.73220000      1.26078000       1
C              -6.38205000      3.27672000      0.31383500       6
H               6.42560000      2.75479000     -1.73057000       1
H              -6.43362000      2.75479000     -1.73057000       1
C               6.47717000      3.27672000      0.31383500       6
H              -4.99067000     -1.15887000     -5.19631000       1
I               0.01921270      7.35802000      0.16135200      53
H               5.47305000     -2.64177000     -4.17397000       1
H              -0.87915600     -7.28358000     -0.76187100       1
H               0.81571300     -7.30772000     -0.79640900       1
H              -0.25625200      6.84455000      2.86616000       1
I              -0.03211100     -6.06869000     -4.36179000      53
H               7.27413000      1.67436000     -0.79640900       1
H              -5.50411000     -5.10650000      0.20740400       1
H              -7.27996000      1.69850000     -0.76187100       1
I               0.03055900     -5.97410000      4.55854000      53
H               5.56332000     -5.07002000      0.24348300       1
N               6.02736000     -2.33159000      3.87969000       7
N              -5.49604000     -2.00023000     -4.84149000       7
H              -6.71467000     -2.13753000      2.86616000       1
H              -0.92775300      6.34031000     -4.17397000       1
C               5.93450000     -1.71737000     -4.52648000       6
N              -0.37344400      6.65049000      3.87969000       7
H              -6.32175000     -0.36956800      4.46255000       1
C              -6.01326000     -1.39086000      4.69756000       6
H               5.44589000     -1.37129000     -5.43916000       1
I              -3.12430000     -3.37834000      6.33446000      53
H               1.48849000      6.62878000     -4.01158000       1
I              -3.16347000      1.12708000      7.15383000      53
I               3.30531000     -3.37834000      6.33446000      53
H               6.53748000     -0.36956800      4.46255000       1
I               3.26614000      1.12708000      7.15383000      53
H              -6.96555000     -0.94774200     -3.75239000       1
P              -3.20274000      7.32677000      0.08928770      15
P               3.22687000      7.32677000      0.08928770      15
H              -1.37955000      6.75319000      4.11435000       1
H              -0.78505600      2.11923000      7.84993000       1
N              -6.83186000     -2.33159000      3.87969000       7
H               6.28805000     -3.31949000      4.07619000       1
H               0.91039400      2.13575000      7.87865000       1
P              -3.19233000     -6.10687000      4.47415000      15
H              -5.39845000     -2.72160000     -5.57659000       1
P               3.20173000     -6.13365000     -4.45167000      15
P               3.23728000     -6.10687000      4.47415000      15
P              -3.22788000     -6.13365000     -4.45167000      15
H              -7.26710000      3.91206000      0.24348300       1
I               6.42631000      2.91339000     -4.36179000      53
I              -6.43292000      2.91339000     -4.36179000      53
H               7.38392000      3.87558000      0.20740400       1
I              -6.37025000      3.00798000      4.55854000      53
H              -6.57118000     -3.31949000      4.07619000       1
C               6.84597000     -1.39086000      4.69756000       6
C              -6.92473000     -1.71737000     -4.52648000       6
H               1.05997000      6.26048000     -5.57659000       1
H               0.82941300      3.06809000     -7.84983000       1
I               6.48898000      3.00798000      4.55854000      53
H              -0.96357200      3.05265000     -7.88773000       1
N               0.96238000      6.98185000     -4.84149000       7
C              -0.46630700      7.26471000     -4.52648000       6
C              -6.41086000     -5.70536000      0.31383500       6
H              -6.18660000     -1.61092000      5.75336000       1
C               6.44837000     -5.70536000      0.31383500       6
I               3.11891000     -4.13241000     -6.95988000      53
N               0.05262610      2.11152000      8.46749000       7
I              -3.31070000     -4.13241000     -6.95988000      53
H               1.49709000      7.44149000      4.44517000       1
I               3.18391000     -8.03868000     -1.82247000      53
I              -3.24570000     -8.03868000     -1.82247000      53
H              -0.50713000      8.03434000     -3.75239000       1
H              -7.38617000     -2.64177000     -4.17397000       1
H              -7.29591000     -5.07002000      0.24348300       1
C               0.44516300      7.59122000      4.69756000       6
H               7.35511000     -5.10650000      0.20740400       1
H               6.67262000     -1.61092000      5.75336000       1
I              -3.09550000      5.60374000      6.33446000      53
I              -0.00750009     -1.54063000     -8.87550000      53
H               0.05486250      1.18458000      8.93806000       1
H              -6.40272000     -6.24989000      1.26078000       1
N               7.36319000     -2.00023000     -4.84149000       7
I               3.14772000      4.84967000     -6.95988000      53
C              -0.05469740      3.14265000     -8.48636000       6
H              -0.02201190      1.09164000     -8.99452000       1
H               6.45650000     -6.24989000      1.26078000       1
I               3.33412000      5.60374000      6.33446000      53
H               6.39680000     -6.22729000     -1.73057000       1
I              -3.28190000      4.84967000     -6.95988000      53
H              -7.83797000     -2.22889000      4.11435000       1
H              -6.46243000     -6.22729000     -1.73057000       1
H               7.88930000     -2.35330000     -4.01158000       1
I               0.06937430     -1.44768000      9.05708000      53
H               5.55046000     -7.28358000     -0.76187100       1
H              -4.94112000      6.62878000     -4.01158000       1
H               7.89790000     -1.54059000      4.44517000       1
H              -5.61390000     -7.30772000     -0.79640900       1
H              -7.41333000     -1.37129000     -5.43916000       1
N               6.40596000     -6.69407000     -0.80240400       7
N              -6.45326000     -6.69407000     -0.80240400       7
H               0.27181500      7.37117000      5.75336000       1
H               5.50186000      6.34031000     -4.17397000       1
H               5.05006000      6.75319000      4.11435000       1
H              -0.95491400      7.61079000     -5.43916000       1
H               6.31685000      5.66259000      4.07619000       1
H               7.86856000     -1.15887000     -5.19631000       1
H               1.46775000      7.82322000     -5.19631000       1
H              -6.54237000      5.66259000      4.07619000       1
P              -3.12862000     -1.57304000      8.92278000      15
P               3.30100000     -1.57304000      8.92278000      15
H               6.17336000      6.84455000      2.86616000       1
N              -0.02424830      2.01857000     -9.46510000       7
I              -3.18996000     -8.75382000      2.69734000      53
H               0.13667000      8.61251000      4.46255000       1
H               7.46078000     -2.72160000     -5.57659000       1
P              -3.20549000     -1.66599000     -9.00980000      15
P               3.22412000     -1.66599000     -9.00980000      15
I               3.23966000     -8.75382000      2.69734000      53
I              -6.41040000      7.35802000      0.16135200      53
P               9.62767000     -1.65531000      0.08928770      15
I               6.44883000      7.35802000      0.16135200      53
N               6.05617000      6.65049000      3.87969000       7
P              -9.66116000     -1.65531000      0.08928770      15
H               0.02562580      4.17767000      8.89321000       1
I               6.39750000     -6.06869000     -4.36179000      53
H              -5.51922000      2.13575000      7.87865000       1
I               9.64233000      0.94340600     -1.82247000      53
H               0.80060700     -5.91399000     -7.84983000       1
I              -9.64650000      0.94340600     -1.82247000      53
I              -6.39905000     -5.97410000      4.55854000      53
I              -6.46172000     -6.06869000     -4.36179000      53
H               5.64456000      2.11923000      7.84993000       1
I               6.46017000     -5.97410000      4.55854000      53
H              -0.99237800     -5.92943000     -7.88773000       1
H              -0.05124850      4.08472000     -9.03937000       1
