200
cutoff_factor=1.20000000 nneightol=1.20000000 Lattice="28.54016000       0.00000000       0.00000000       0.00000000      28.35295000       0.00000000       0.00000000       0.00000000      27.41405000" Properties=species:S:1:pos:R:3:Z:I:1
H               0.25719800     -1.20965000      0.59430800       1
I              -1.27568000      0.12113400     -1.01278000      53
N               0.98384000     -1.44123000      1.30455000       7
H               1.83719000     -0.92480400      1.03703000       1
H               0.63536200     -1.08477000      2.22266000       1
P               1.05638000      2.32612000     -1.62569000      15
I               1.58743000      2.45202000      1.60424000      53
C               1.24602000     -2.90795000      1.36603000       6
I               3.20126000     -0.06983090     -1.56599000      53
H              -3.35930000      0.94648400      0.82612200       1
H               1.59614000     -3.23794000      0.38544300       1
H              -1.93046000      2.60133000      1.85090000       1
H               0.31500800     -3.41520000      1.62927000       1
H               0.69666100     -1.24124000     -3.68537000       1
H               2.00919000     -3.09222000      2.12562000       1
N              -3.76541000      1.62023000      1.50238000       7
C              -2.94736000      2.86594000      1.55224000       6
P              -3.40078000     -2.29966000     -1.56753000      15
I              -0.50848100     -0.42431500      4.39020000      53
H              -2.94905000      3.31902000      0.55865200       1
H              -3.82936000      1.17542000      2.44068000       1
H               4.16473000      1.84034000      1.21937000       1
I              -3.71598000     -2.44013000      1.63351000      53
I              -1.05987000     -4.41668000     -1.46476000      53
H               1.40548000     -2.88501000     -3.57499000       1
C               1.28811000     -1.99975000     -4.20317000       6
I              -1.04911000      4.66431000     -1.46476000      53
I               0.64665000      1.87545000     -4.76560000      53
H              -4.74203000      1.84034000      1.21937000       1
H               2.26390000     -1.59744000     -4.48476000       1
H              -3.28977000      2.40362000     -3.35037000       1
H              -3.39608000      3.54375000      2.28170000       1
P               1.30802000      2.30960000      4.77493000      15
N               5.14135000      1.62023000      1.50238000       7
H               5.54745000      0.94648400      0.82612200       1
H               5.07739000      1.17542000      2.44068000       1
H              -3.01300000      0.57703600     -4.94289000       1
H              -1.88560000      1.78973000     -5.22912000       1
H               0.32576400      5.66580000      1.62927000       1
I              -5.70550000     -0.06983090     -1.56599000      53
H              -0.37440300     -2.77627000     -5.21882000       1
I               3.35356000      4.49871000     -1.97991000      53
I              -2.98227000     -1.98985000     -4.75244000      53
I               5.19077000     -2.44013000      1.63351000      53
N               0.56372800     -2.39694000     -5.44421000       7
I               3.34281000     -4.58229000     -1.97991000      53
H               1.60690000      5.84306000      0.38544300       1
P               5.50598000     -2.29966000     -1.56753000      15
N              -2.90333000      1.56751000     -5.24565000       7
C              -3.66869000      2.49754000     -4.37077000       6
P              -3.27814000     -2.34835000      4.75826000      15
I               3.98520000      0.46987500      4.78940000      53
H               0.40705600     -1.58965000     -6.07830000       1
C               1.25678000      6.17304000      1.36603000       6
I              -1.33752000      4.16900000      4.74611000      53
H               4.18193000      2.22150000     -4.41271000       1
H              -2.95981000     -5.76197000      0.55865200       1
H               2.01994000      5.98878000      2.12562000       1
C               5.95939000      2.86594000      1.55224000       6
H               0.60355600     -1.53129000      6.61132000       1
H               1.11639000     -3.09786000     -5.98744000       1
H              -4.72482000      2.22150000     -4.41271000       1
H               5.95770000      3.31902000      0.55865200       1
H              -3.52562000      3.51605000     -4.73910000       1
I              -4.92155000      0.46987500      4.78940000      53
H              -3.40684000     -5.53724000      2.28170000       1
H               5.51067000      3.54375000      2.28170000       1
I              -1.34828000     -4.91199000      4.74611000      53
H               5.61699000      2.40362000     -3.35037000       1
I               1.57667000     -6.62897000      1.60424000      53
H              -1.94121000     -6.47966000      1.85090000       1
P               1.04562000     -6.75487000     -1.62569000      15
C              -2.95812000     -6.21505000      1.55224000       6
H              -7.06957000     -0.92480400      1.03703000       1
H              -3.24898000      1.61979000     -6.22441000       1
C               5.23807000      2.49754000     -4.37077000       6
H               1.41624000      6.19598000     -3.57499000       1
H              -3.05248000      1.67815000      6.46521000       1
I               3.06287000     -4.15569000      5.27158000      53
I              -5.55319000      4.49871000     -1.97991000      53
I              -5.56395000     -4.58229000     -1.97991000      53
H               1.31289000     -3.03950000      6.70217000       1
N               0.76022800     -2.33858000      7.24540000       7
H               6.97630000      2.60133000      1.85090000       1
I               7.63107000      0.12113400     -1.01278000      53
H               5.89375000      0.57703600     -4.94289000       1
P               5.62861000     -2.34835000      4.75826000      15
P              -3.39002000      6.78133000     -1.56753000      15
I              -3.70523000      6.64086000      1.63351000      53
N               0.99459700      7.63976000      1.30455000       7
I               3.07363000      4.92531000      5.27158000      53
I               5.92449000     -1.98985000     -4.75244000      53
H              -6.89757000     -3.09222000      2.12562000       1
H              -1.68910000      1.84810000      7.46050000       1
I              -7.31933000      2.45202000      1.60424000      53
H               0.26795400      7.87134000      0.59430800       1
H              -0.17790300     -2.71791000      7.47080000       1
H               5.38113000      3.51605000     -4.73910000       1
H              -7.31061000     -3.23794000      0.38544300       1
N              -2.70683000      1.62588000      7.44397000       7
H              -3.53638000     -5.56494000     -4.73910000       1
N               6.00343000      1.56751000     -5.24565000       7
H               5.49992000     -5.53724000      2.28170000       1
N              -7.92292000     -1.44123000      1.30455000       7
H              -3.30053000     -6.67738000     -3.35037000       1
H              -6.64286000     -1.59744000     -4.48476000       1
H              -0.36364600      6.30472000     -5.21882000       1
I               0.84315100      1.93381000      7.92402000      53
H              -2.81650000      0.63539900      7.74673000       1
H               5.94695000     -5.76197000      0.55865200       1
P               1.11152000      2.25123000     -7.91469000      15
C              -7.66073000     -2.90795000      1.36603000       6
H               0.64611900      7.99623000      2.22266000       1
C               1.29887000      7.08124000     -4.20317000       6
I              -0.70498200     -0.48267900     -8.29942000      53
P              -7.85038000      2.32612000     -1.62569000      15
P               1.29726000     -6.77140000      4.77493000      15
H               1.84795000      8.15619000      1.03703000       1
H               4.15397000     -7.24066000      1.21937000       1
N              -3.77616000     -7.46076000      1.50238000       7
H               1.12714000      5.98313000     -5.98744000       1
H               5.65778000      1.61979000     -6.22441000       1
I               5.20153000      6.64086000      1.63351000      53
I              -2.78577000     -1.93149000      7.93717000      53
H              -8.27139000     -1.08477000      2.22266000       1
N               0.57448500      6.68405000     -5.44421000       7
I               0.63589400     -7.20554000     -4.76560000      53
H               0.70741800      7.83975000     -3.68537000       1
H               2.46040000     -1.53907000      8.20486000       1
C              -3.67945000     -6.58345000     -4.37077000       6
C               5.94864000     -6.21505000      1.55224000       6
H              -4.75279000     -7.24066000      1.21937000       1
H              -8.64956000     -1.20965000      0.59430800       1
I               3.78870000      0.41151100     -7.90022000      53
H              -7.50127000     -2.88501000     -3.57499000       1
C               1.48461000     -1.94139000      8.48645000       6
H              -3.37006000     -8.13451000      0.82612200       1
P              -3.26739000      6.73265000      4.75826000      15
P               5.51673000      6.78133000     -1.56753000      15
H               5.85428000      1.67815000      6.46521000       1
I              -5.84388000     -4.15569000      5.27158000      53
C              -7.61865000     -1.99975000     -4.20317000       6
H               7.02116000      1.78973000     -5.22912000       1
P              -3.47464000     -2.40671000     -7.93135000      15
I               2.86637000     -4.21405000     -7.41803000      53
H               2.27465000      7.48356000     -4.48476000       1
I              -2.97151000      7.09114000     -4.75244000      53
H               5.37038000     -5.56494000     -4.73910000       1
I              -1.53402000      4.11064000     -7.94351000      53
H              -8.21009000     -1.24124000     -3.68537000       1
I              -1.28644000     -8.95986000     -1.01278000      53
H               1.32364000      6.04150000      6.70217000       1
H              -3.84012000     -7.90557000      2.44068000       1
I               7.84689000     -4.41668000     -1.46476000      53
H               0.89316200     -1.18288000      9.00425000       1
H               4.17118000     -6.85950000     -4.41271000       1
H              -1.89636000     -7.29126000     -5.22912000       1
N               5.13059000     -7.46076000      1.50238000       7
I               7.85765000      4.66431000     -1.46476000      53
H               9.16395000     -1.20965000      0.59430800       1
P              -7.59874000      2.30960000      4.77493000      15
I              -5.83312000      4.92531000      5.27158000      53
I               2.87713000      4.86694000     -7.41803000      53
H              -3.32912000      3.57441000      7.95051000       1
H               5.60623000     -6.67738000     -3.35037000       1
I              -1.26493000      9.20213000     -1.01278000      53
H              -7.29986000      5.84306000      0.38544300       1
C              -3.47219000      2.55590000      8.31885000       6
H              -6.88681000      5.98878000      2.12562000       1
H              -8.59175000     -3.41520000      1.62927000       1
I              -5.11805000      0.41151100     -7.90022000      53
H              -4.73558000     -6.85950000     -4.41271000       1
C               5.22731000     -6.58345000     -4.37077000       6
I               8.39827000     -0.42431500      4.39020000      53
I              -1.54478000     -4.97036000     -7.94351000      53
N              -2.91408000     -7.51348000     -5.24565000       7
H               4.37844000      2.27986000      8.27691000       1
H               0.41781200      7.49134000     -6.07830000       1
H               1.60198000     -2.82665000      9.11463000       1
H               6.96554000     -6.47966000      1.85090000       1
I               3.21201000      9.01116000     -1.56599000      53
H               5.06664000     -7.90557000      2.44068000       1
H              -4.52832000      2.27986000      8.27691000       1
I              -8.26011000      1.87545000     -4.76560000      53
I              -0.49772500      8.65668000      4.39020000      53
H              -0.16714600      6.36308000      7.47080000       1
I               3.19050000     -9.15082000     -1.56599000      53
N               6.19993000      1.62588000      7.44397000       7
H               9.54212000     -1.08477000      2.22266000       1
I               7.56923000      4.16900000      4.74611000      53
H               6.09025000      0.63539900      7.74673000       1
H               5.53670000     -8.13451000      0.82612200       1
P               5.43211000     -2.40671000     -7.93135000      15
C              -7.64998000      6.17304000      1.36603000       6
N               0.77098500      6.74241000      7.24540000       7
H               9.22176000     -3.41520000      1.62927000       1
P               5.63937000      6.73265000      4.75826000      15
I              -7.33008000     -6.62897000      1.60424000      53
H               0.61431300      7.54971000      6.61132000       1
N               9.89060000     -1.44123000      1.30455000       7
