200
cutoff_factor=1.20000000 nneightol=1.20000000 Lattice="28.47102000       0.00000000       0.00000000       0.00000000      28.66151000       0.00000000       0.00000000       0.00000000      29.00396000" Properties=species:S:1:pos:R:3:Z:I:1
H               0.08567870     -0.59130100     -0.58972800       1
C              -0.09394080     -1.66551000     -0.67464000       6
H              -1.16627000     -1.87282000     -0.69441700       1
H               0.05585960     -1.98462000      1.38755000       1
N               0.49170500     -2.33532000      0.51579200       7
H               0.38925600     -2.06438000     -1.56926000       1
H               1.52099000     -2.16451000      0.54812700       1
I              -1.71670000      0.06073770      2.58477000      53
I               0.48600000      3.07395000     -0.03791580      53
H               0.36697600     -3.36733000      0.45632000       1
I              -2.15926000      0.59145500     -2.72090000      53
H              -2.90064000      2.02374000     -0.66534700       1
H              -3.17743000      1.50190000      0.89539500       1
H               3.71514000      1.43802000     -0.40512900       1
N              -3.39167000      2.26256000      0.22043400       7
P               0.19926300      2.67396000      3.19217000      15
I               2.29387000      0.65059500     -3.51052000      53
P               0.03132560      2.89854000     -3.25207000      15
I               3.98880000     -1.79521000      0.00207765      53
H              -2.99901000      3.13684000      0.62344400       1
I               2.74160000      0.73913800      3.42204000      53
H               3.60458000      2.61929000      0.94140600       1
C               4.08589000      2.38698000     -0.01116350       6
H               0.29735200     -0.65543700     -5.00669000       1
H               3.91640000      3.19144000     -0.73054500       1
I              -4.95389000     -1.79521000      0.00207765      53
H              -0.15990700     -0.59335200      5.34413000       1
C              -4.85680000      2.38698000     -0.01116350       6
I              -2.23211000     -3.95558000     -2.98307000      53
H              -5.22755000      1.43802000     -0.40512900       1
H               0.41648100     -2.31387000     -5.11048000       1
P              -4.26615000     -1.91962000      3.16875000      15
H               0.28885900      5.63740000      0.45632000       1
P              -4.43682000     -1.67444000     -3.16328000      15
I               2.17633000     -3.82379000      3.62593000      53
I               2.14072000     -3.72850000     -3.75314000      53
H              -0.05388170     -2.37871000      5.20997000       1
I              -2.32157000     -4.41233000      2.82597000      53
N              -0.02713650     -1.47824000     -5.54656000       7
P               4.50586000     -1.67444000     -3.16328000      15
H              -1.06292000     -1.54872000     -5.48537000       1
I              -2.39969000      4.59240000      2.82597000      53
C               0.29393600     -1.49795000      5.75422000       6
I               0.56411700     -5.93078000     -0.03791580      53
P               4.67654000     -1.91962000      3.16875000      15
N               5.55102000      2.26256000      0.22043400       7
H              -5.02629000      3.19144000     -0.73054500       1
H              -5.33811000      2.61929000      0.94140600       1
H               5.76526000      1.50190000      0.89539500       1
H               1.38358000     -1.42976000      5.71757000       1
I              -2.31023000      5.04916000     -2.98307000      53
H               6.04204000      2.02374000     -0.66534700       1
H              -2.92089000     -5.86790000      0.62344400       1
I               2.09821000      5.18094000      3.62593000      53
N               0.41358800      6.66941000      0.51579200       7
H               5.94368000      3.13684000      0.62344400       1
I              -0.52837800      2.40486000      6.28734000      53
I               2.06261000      5.27624000     -3.75314000      53
P               0.10944300     -6.10619000     -3.25207000      15
I              -0.43237700      2.55745000     -6.43676000      53
H              -3.04011000      2.25714000      5.87170000       1
H               4.43298000      1.96942000      5.04715000       1
H               1.44288000      6.84023000      0.54812700       1
H              -4.50970000      1.96942000      5.04715000       1
H               3.99452000     -5.81330000     -0.73054500       1
P               0.27738000     -6.33078000      3.19217000      15
C               0.38993700     -1.34536000     -6.96988000       6
I              -6.20108000      0.73913800      3.42204000      53
H               0.31113900      6.94035000     -1.56926000       1
H              -0.02225770      7.02012000      1.38755000       1
H              -4.14941000      3.18860000     -4.90178000       1
H               3.25570000      2.90504000     -5.78233000       1
H              -1.24439000      7.13192000     -0.69441700       1
H               1.47958000     -1.27717000     -7.00654000       1
I               6.78343000      0.59145500     -2.72090000      53
N              -0.12313700     -1.63083000      7.17755000       7
C              -0.17205800      7.33922000     -0.67464000       6
H              -0.06390650     -0.44076600     -7.37997000       1
H               3.68269000     -6.38545000      0.94140600       1
I              -3.65877000     -1.44168000     -6.36516000      53
N              -4.05233000      2.02910000      5.97979000       7
N              -3.31355000     -6.74217000      0.22043400       7
H              -1.15892000     -1.70131000      7.23873000       1
I              -6.64881000      0.65059500     -3.51052000      53
I              -3.75477000     -1.59426000      6.35894000      53
H              -2.82252000     -6.98100000     -0.66534700       1
H               4.79328000      3.18860000     -4.90178000       1
H              -4.00672000      1.22661000     -6.33766000       1
H              -4.10272000      1.07403000      6.38644000       1
H              -4.94817000     -5.81330000     -0.73054500       1
I               7.22599000      0.06073770      2.58477000      53
H              -7.42169000     -2.16451000      0.54812700       1
H               0.20135200     -0.80802400      7.71741000       1
C               4.16401000     -6.61776000     -0.01116350       6
H               0.04211900     -2.22612000     -7.51413000       1
H              -2.94411000      2.40972000     -6.85240000       1
C               4.30645000      3.18738000     -5.87963000       6
N               4.89036000      2.02910000      5.97979000       7
H               0.32048000     -2.46645000      7.61363000       1
H               7.77642000     -1.87282000     -0.69441700       1
H               4.83996000      1.07403000      6.38644000       1
H               3.15970000      2.75245000      6.94177000       1
N              -3.95633000      2.18169000     -6.74431000       7
H               4.93596000      1.22661000     -6.33766000       1
C              -4.63623000      3.18738000     -5.87963000       6
C              -4.77868000     -6.61776000     -0.01116350       6
H              -3.09931000     -7.50284000      0.89539500       1
I               3.91068000      7.20953000      0.00207765      53
H              -5.25999000     -6.38545000      0.94140600       1
I               6.71058000     -3.95558000     -2.98307000      53
I               5.18792000     -1.59426000      6.35894000      53
I               5.28392000     -1.44168000     -6.36516000      53
H               0.33836400      6.69087000     -5.11048000       1
H              -0.13199900      6.62603000      5.20997000       1
H               6.02180000     -5.86790000      0.62344400       1
H               0.00756135      8.41343000     -0.58972800       1
I               6.62111000     -4.41233000      2.82597000      53
H               3.79325000     -7.56672000     -0.40512900       1
I               6.54299000      4.59240000      2.82597000      53
I              -6.76636000     -3.82379000      3.62593000      53
C               4.21045000      3.03480000      6.84447000       6
H              -5.68699000      2.90504000     -5.78233000       1
I              -6.80196000     -3.72850000     -3.75314000      53
H               5.90258000      2.25714000      5.87170000       1
H              -4.07129000     -5.81613000     -4.90178000       1
N               4.98636000      2.18169000     -6.74431000       7
H               4.29975000      4.01547000      6.37144000       1
H               4.39575000      4.16806000     -6.35267000       1
N              -8.45098000     -2.33532000      0.51579200       7
N               5.62913000     -6.74217000      0.22043400       7
I              -5.03200000      7.20953000      0.00207765      53
H              -4.64294000      4.01547000      6.37144000       1
I               6.63246000      5.04916000     -2.98307000      53
H              -4.54694000      4.16806000     -6.35267000       1
C              -4.73223000      3.03480000      6.84447000       6
P              -4.34426000      7.08512000      3.16875000      15
H              -8.85701000     -0.59130100     -0.58972800       1
H              -8.55343000     -2.06438000     -1.56926000       1
I              -8.45669000      3.07395000     -0.03791580      53
P               4.59842000      7.08512000      3.16875000      15
C               8.84875000     -1.66551000     -0.67464000       6
H               4.87139000     -5.81613000     -4.90178000       1
H               3.33381000     -6.09970000     -5.78233000       1
H               9.02836000     -0.59130100     -0.58972800       1
I              -2.08114000     -8.41328000     -2.72090000      53
H              -4.41370000      2.12200000     -7.67696000       1
I              -0.35426000     -6.44729000     -6.43676000      53
I              -0.45026000     -6.59987000      6.28734000      53
P               4.42775000      7.33030000     -3.16328000      15
H              -4.46882000     -4.83668000     -6.35267000       1
H               4.47386000     -4.83668000     -6.35267000       1
H              -5.14943000     -7.56672000     -0.40512900       1
H               4.52898000      2.12200000     -7.67696000       1
P              -4.51494000      7.33030000     -3.16328000      15
H               4.37786000     -4.98927000      6.37144000       1
H              -8.88683000     -1.98462000      1.38755000       1
C              -9.03663000     -1.66551000     -0.67464000       6
H              -8.57571000     -3.36733000      0.45632000       1
H              -4.56482000     -4.98927000      6.37144000       1
H               6.12016000     -6.98100000     -0.66534700       1
I              -6.84447000      5.18094000      3.62593000      53
H               8.99855000     -1.98462000      1.38755000       1
H              -1.14104000      7.45601000     -5.48537000       1
N              -0.10525400      7.52649000     -5.54656000       7
C               4.38457000     -5.81735000     -5.87963000       6
I               2.37199000     -8.35414000     -3.51052000      53
I               2.81972000     -8.26560000      3.42204000      53
H              -4.24541000      3.03601000      7.82232000       1
H               5.99858000      2.40972000     -6.85240000       1
H              -2.96199000     -6.74760000      5.87170000       1
C              -4.55812000     -5.81735000     -5.87963000       6
H              -5.78299000      2.75245000      6.94177000       1
I              -6.88008000      5.27624000     -3.75314000      53
I              -1.63858000     -8.94400000      2.58477000      53
C               0.21581900      7.50679000      5.75422000       6
I               2.19787000      0.49800900      9.21358000      53
H               5.84338000     -7.50284000      0.89539500       1
H               1.30547000      7.57498000      5.71757000       1
H              -7.55910000     -1.42976000      5.71757000       1
I              -1.79481000      9.06547000      2.58477000      53
H               0.16379600     -9.59604000     -0.58972800       1
H               4.69728000      3.03601000      7.82232000       1
P              -8.74342000      2.67396000      3.19217000      15
H               9.33194000     -2.06438000     -1.56926000       1
H               7.87976000     -1.54872000     -5.48537000       1
H              -4.43159000     -7.03532000      5.04715000       1
N               9.43439000     -2.33532000      0.51579200       7
H               0.21923500      8.34930000     -5.00669000       1
H               4.51110000     -7.03532000      5.04715000       1
I               2.83760000      0.89172400     -9.30206000      53
P              -0.06467500      2.74595000      9.47203000      15
H               3.23781000     -6.25228000      6.94177000       1
H               9.30966000     -3.36733000      0.45632000       1
I               9.42869000      3.07395000     -0.03791580      53
P              -8.91136000      2.89854000     -3.25207000      15
H              -2.86599000     -6.59501000     -6.85240000       1
P               0.29526300      2.82654000     -9.53193000      15
H              -0.23802400      8.41138000      5.34413000       1
P               8.97401000      2.89854000     -3.25207000      15
I               2.04472000     -3.88109000      8.97096000      53
