200
cutoff_factor=1.20000000 nneightol=1.20000000 Lattice="29.26514000       0.00000000       0.00000000       0.00000000      29.22920000       0.00000000       0.00000000       0.00000000      28.40020000" Properties=species:S:1:pos:R:3:Z:I:1
I              -1.21309000      1.11742000      0.32342900      53
H               0.52011500     -0.75533800     -1.55234000       1
H               0.66051300     -2.57948000      0.03115170       1
C               0.86281000     -1.74244000     -1.86964000       6
H               0.59844300      1.23312000      2.41079000       1
N               0.30602600     -2.75864000     -0.93276200       7
H              -0.73107500     -2.72814000     -0.93652500       1
H               1.95308000     -1.79879000     -1.83207000       1
H               0.50523900     -1.96641000     -2.87634000       1
P               0.58780600      3.24028000     -1.32926000      15
I               3.25842000      1.75635000     -0.31827000      53
I               2.26527000     -2.07222000      2.10929000      53
N               0.93459100      1.77229000      3.23422000       7
H               0.63459500     -3.69900000     -1.22666000       1
P              -3.86464000     -0.49018700      1.29843000      15
H               0.76777000      2.77585000      3.02531000       1
H               1.95833000      1.62219000      3.35502000       1
I               0.56209300      1.45620000     -3.93793000      53
I              -2.11753000     -2.55964000      2.86416000      53
I              -3.56147000     -2.24379000     -1.34486000      53
H              -2.97910000      0.61707800     -3.33528000       1
H              -0.87585700      1.52131000      4.28966000       1
C               0.19082200      1.36030000      4.46166000       6
H               0.39285400      0.30366100      4.64939000       1
H              -2.97334000      2.30354000     -3.17273000       1
H              -4.18144000      1.40254000     -2.44981000       1
N              -3.57218000      1.45916000     -3.29358000       7
P               4.97099000     -0.49018700      1.29843000      15
I               0.38553600      4.97748000      1.34904000      53
H              -2.58308000      4.51933000      1.44571000       1
H               4.65419000      1.40254000     -2.44981000       1
H              -3.95138000      3.66952000      0.90762200       1
I              -2.13500000      4.64698000     -2.43428000      53
H               0.53791600      1.97200000      5.29705000       1
P               0.41185000     -4.09693000      3.92157000      15
H              -3.17817000      4.74837000     -0.10043200       1
N              -3.45544000      4.58052000      0.89139000       7
I              -5.57721000      1.75635000     -0.31827000      53
I               5.27416000     -2.24379000     -1.34486000      53
I              -1.33260000     -2.68562000     -5.12251000      53
H              -3.78964000     -4.41768000      1.27208000       1
I              -4.29526000      1.37368000      3.89940000      53
H               3.79132000      0.72631400     -4.61448000       1
I               4.54037000      1.37368000      3.89940000      53
H               4.88425000      3.66952000      0.90762200       1
I               0.40131500     -6.06705000      1.34904000      53
H               3.82685000      2.50775000     -4.42688000       1
N               5.26345000      1.45916000     -3.29358000       7
I               2.31004000     -5.45893000     -2.60599000      53
I               3.05266000     -1.93606000     -5.39539000      53
H               3.60002000     -5.35772000      0.78387700       1
C              -4.40320000      1.60385000     -4.52453000       6
C               4.43243000      1.60385000     -4.52453000       6
P               0.48191900     -0.44991400     -6.52790000      15
I               2.29426000      5.58560000     -2.60599000      53
H              -3.80786000     -1.96209000      5.06540000       1
H              -3.73779000      1.68492000     -5.38407000       1
H               3.58424000      5.68681000      0.78387700       1
H               5.85653000      0.61707800     -3.33528000       1
H               5.04599000     -4.41768000      1.27208000       1
H              -5.04431000      0.72631400     -4.61448000       1
I               0.49202300     -2.19082000      6.51154000      53
P              -3.92855000     -4.07997000     -3.96265000      15
C              -4.32256000     -5.36365000      1.38353000       6
H               0.46292400      3.95068000     -5.80008000       1
H              -3.16239000     -6.29616000     -0.10043200       1
H               5.86229000      2.30354000     -3.17273000       1
N               5.38019000      4.58052000      0.89139000       7
H              -5.00877000      2.50775000     -4.42688000       1
C               4.51307000     -5.36365000      1.38353000       6
H              -2.56730000     -6.52520000      1.44571000       1
I              -2.11922000     -6.39755000     -2.43428000      53
H               3.75678000     -1.13927000      6.02259000       1
I              -6.57036000     -2.07222000      2.10929000      53
I              -1.41845000      4.71189000      5.32697000      53
C              -4.33834000      5.68087000      1.38353000       6
H              -6.88255000     -1.79879000     -1.83207000       1
H               4.26538000      5.49336000      2.43306000       1
N              -3.43966000     -6.46401000      0.89139000       7
C               4.49729000      5.68087000      1.38353000       6
H               5.65746000      4.74837000     -0.10043200       1
H               5.02777000     -1.96209000      5.06540000       1
H               4.28115000     -5.55117000      2.43306000       1
H               0.61881700      7.34553000     -1.22666000       1
H               0.62376500     -5.42551000     -5.15243000       1
H               3.72125000     -2.92070000      5.83499000       1
P               4.90708000     -4.07997000     -3.96265000      15
H              -5.23561000     -5.35772000      0.78387700       1
H              -4.57025000      5.49336000      2.43306000       1
H              -4.55447000     -5.55117000      2.43306000       1
H               5.09784000      1.68492000     -5.38407000       1
C               4.36236000     -2.04317000      5.92494000       6
H               0.60798600      5.61902000     -5.15243000       1
C              -4.47327000     -2.04317000      5.92494000       6
I               7.62254000      1.11742000      0.32342900      53
I               6.71810000     -2.55964000      2.86416000      53
H              -3.80542000      6.62685000      1.27208000       1
H              -5.25139000      5.68681000      0.78387700       1
C               0.26089100      5.00732000     -5.98781000       6
H              -6.87730000      1.62219000      3.35502000       1
H               6.25255000      4.51933000      1.44571000       1
I              -2.04746000      1.08738000     -7.58531000      53
P               0.60358400     -7.80425000     -1.32926000      15
H              -5.07884000     -1.13927000      6.02259000       1
P               0.39607100      6.94760000      3.92157000      15
H              -3.04341000     -1.34348000      7.27675000       1
I               2.96681000      5.46145000      5.05408000      53
H              -0.80578700      5.16833000     -6.15981000       1
I               2.98259000     -5.58308000      5.05408000      53
I              -5.78297000     -1.93606000     -5.39539000      53
H              -5.11438000     -2.92070000      5.83499000       1
H              -3.04917000     -3.02994000      7.11420000       1
P              -4.01440000      3.31754000      6.48682000      15
N              -3.64225000     -2.18785000      7.15589000       7
N               0.29024700      8.28589000     -0.93276200       7
C              -7.97282000     -1.74244000     -1.86964000       6
I              -2.20507000      0.99995900      8.01520000      53
I               2.22419000      1.93858000      7.84348000      53
I              -1.40267000     -6.33264000      5.32697000      53
H              -0.74685400      8.31639000     -0.93652500       1
H              -3.93560000     -7.37501000      0.90762200       1
H               5.03021000      6.62685000      1.27208000       1
N               5.39597000     -6.46401000      0.89139000       7
H               5.67324000     -6.29616000     -0.10043200       1
H               0.64473400      8.46504000      0.03115170       1
H              -8.31551000     -0.75533800     -1.55234000       1
C               0.27667000     -6.03721000     -5.98781000       6
I               6.70063000      4.64698000     -2.43428000      53
H              -0.79000800     -5.87620000     -6.15981000       1
H              -8.17512000     -2.57948000      0.03115170       1
H               8.10455000     -2.72814000     -0.93652500       1
H              -8.23719000      1.23312000      2.41079000       1
N              -7.90104000      1.77229000      3.23422000       7
P               4.82123000      3.31754000      6.48682000      15
H               0.85361900     -4.62166000     -7.42416000       1
I               2.33534000      1.57480000     -8.34018000      53
H               0.78354900     -8.26868000      3.02531000       1
I              -6.52559000     -5.45893000     -2.60599000      53
H               4.90003000     -7.37501000      0.90762200       1
P              -3.94433000      6.96456000     -3.96265000      15
P              -8.24782000      3.24028000     -1.32926000      15
I              -6.54137000      5.58560000     -2.60599000      53
N              -8.52960000     -2.75864000     -0.93276200       7
H              -8.33039000     -1.96641000     -2.87634000       1
H              -8.06786000      2.77585000      3.02531000       1
H               2.02840000      5.26921000     -7.09445000       1
N               1.00466000      5.41931000     -7.21525000       7
H              -8.20103000     -3.69900000     -1.22666000       1
N               5.19338000     -2.18785000      7.15589000       7
P               0.51773600     -0.40673400      9.12022000      15
H               6.26832000     -6.52520000      1.44571000       1
H               7.95977000      1.52131000      4.28966000       1
H               0.47870300     -7.09385000     -5.80008000       1
N               1.02044000     -5.62522000     -7.21525000       7
I              -2.13331000      8.48489000      2.86416000      53
I              -4.22519000      5.02069000     -6.55007000      53
I              -8.27354000      1.45620000     -3.93793000      53
H               4.35122000     -1.90416000     -8.01641000       1
H               0.41939000      5.43110000      7.57313000       1
H              -4.25151000     -2.24448000      7.99966000       1
H               2.04418000     -5.77532000     -7.09445000       1
H              -4.48440000     -1.90416000     -8.01641000       1
P               4.89130000      6.96456000     -3.96265000      15
H               5.79222000     -1.34348000      7.27675000       1
H               0.66851300      4.88014000     -8.03869000       1
I               0.47138500     -2.42004000     -9.10043000      53
H               0.43516900     -5.61343000      7.57313000       1
I               4.61044000      5.02069000     -6.55007000      53
I               7.50303000     -2.68562000     -5.12251000      53
I              -5.86882000      5.46145000      5.05408000      53
I               2.24949000      8.97231000      2.10929000      53
H               4.58412000     -2.24448000      7.99966000       1
H               9.35574000     -0.75533800     -1.55234000       1
C               0.84703200      9.30209000     -1.86964000       6
H               0.48946000      9.07812000     -2.87634000       1
I              -5.85304000     -5.58308000      5.05408000      53
I               6.71641000     -6.39755000     -2.43428000      53
N               9.14165000     -2.75864000     -0.93276200       7
I              -3.57725000      8.80074000     -1.34486000      53
H               1.93730000      9.24574000     -1.83207000       1
H              -8.44277000      0.30366100      4.64939000       1
H               5.78646000     -3.02994000      7.11420000       1
H              -2.95756000     -8.74099000     -3.17273000       1
H              -2.49723000     -2.87818000     -9.00376000       1
H               9.43407000      1.23312000      2.41079000       1
C              -8.64481000      1.36030000      4.46166000       6
H               9.49614000     -2.57948000      0.03115170       1
I              -4.20941000     -6.02384000     -6.55007000      53
H               0.83784000      6.42287000     -7.42416000       1
I               3.27419000     -9.28817000     -0.31827000      53
N               0.95036900     -9.27223000      3.23422000       7
I              -1.34838000      8.35891000     -5.12251000      53
I              -8.45009000      4.97748000      1.34904000      53
H              -3.71957000     -0.77066000     -9.17739000       1
H               0.45004500     -4.40235000      8.89713000       1
H               0.54874700      3.69851000      9.22281000       1
H               9.34087000     -1.96641000     -2.87634000       1
H              -9.56670000     -2.72814000     -0.93652500       1
I              -1.19732000     -9.92711000      0.32342900      53
C               9.69844000     -1.74244000     -1.86964000       6
