200
cutoff_factor=1.20000000 nneightol=1.20000000 Lattice="28.32785000       0.00000000       0.00000000       0.00000000      29.21196000       0.00000000       0.00000000       0.00000000      28.12679000" Properties=species:S:1:pos:R:3:Z:I:1
H               2.01840000     -0.51350000      0.78130800       1
H               0.78038000      1.35873000      1.70973000       1
I              -2.07809000     -0.52806800     -0.94813900      53
H               2.45242000      0.89320200      0.00612329       1
N               2.48100000      0.40638200      0.92616500       7
C               1.82126000      1.20047000      1.99539000       6
I               1.86464000      1.15590000     -2.49610000      53
P               0.27599000     -1.59956000     -2.92348000      15
I               1.81678000     -2.83608000     -0.39275000      53
H               1.87655000      0.63193400      2.92506000       1
H               3.47123000      0.19201400      1.16885000       1
H               2.34475000      2.15389000      2.09404000       1
H              -0.81715200     -3.68493000      0.58958200       1
I              -1.24552000      3.38071000      1.29075000      53
H              -0.99650400      2.30461000     -2.90070000       1
I              -1.38733000     -0.60173100      3.58135000      53
P              -3.38464000      1.00179000      1.64833000      15
H              -2.59256000     -3.43944000      0.64598900       1
H              -1.58769000     -3.10095000      2.81345000       1
H              -1.78878000      3.92879000     -1.27410000       1
C              -1.76379000     -4.07500000      0.96644900       6
H              -3.07441000      3.10005000     -1.91643000       1
C              -1.44114000      3.24189000     -3.24213000       6
H              -4.30492000     -0.97528800     -2.10247000       1
N              -2.31845000      3.76949000     -2.15591000       7
N              -1.71653000     -4.07243000      2.45830000       7
H              -0.66428800      3.98112000     -3.45071000       1
H              -1.91811000     -5.10115000      0.62759700       1
H              -0.94786200     -4.66262000      2.81872000       1
H              -2.05565000      3.07119000     -4.12880000       1
I              -1.27804000     -0.28176200     -5.41093000      53
I              -1.29819000     -4.36317000     -3.24651000      53
H              -1.80878000      2.79297000      4.61749000       1
H               5.04524000     -1.47601000     -2.22849000       1
I               2.05771000     -3.46622000      4.14873000      53
H              -0.10433800      3.32718000      4.76358000       1
I              -5.29709000      2.48022000     -0.49377100      53
H              -2.61305000     -4.44752000      2.83730000       1
I               5.42124000     -1.32958000      1.87326000      53
N              -5.09576000     -1.16881000     -2.75763000       7
I               2.15628000      5.43396000     -0.91219300      53
H              -2.79326000      4.64918000     -2.44077000       1
P               3.97300000     -4.18447000      1.58795000      15
I              -5.54547000     -1.32958000      1.87326000      53
H              -3.80844000     -1.86548000     -4.27161000       1
P               3.85888000      3.60747000     -2.89730000      15
I               2.56291000     -2.57158000     -4.95032000      53
C              -0.98212300      2.97123000      5.30712000       6
I               5.66961000      2.48022000     -0.49377100      53
H              -5.30723000     -0.28829700     -3.27808000       1
H              -0.74273800      2.06190000      5.86105000       1
H               0.89638900     -5.71444000     -2.44077000       1
H              -4.44684000     -3.13076000     -3.17414000       1
H               0.95990600      0.72344800     -6.19789000       1
I               2.40592000      0.82948900      5.78868000      53
P               0.28592500     -1.56349000      6.13788000      15
P               0.28336000      6.17915000      1.58795000      15
C              -4.68623000     -2.22143000     -3.72807000       6
H              -5.92146000     -1.47601000     -2.22849000       1
H               5.65947000     -0.28829700     -3.27808000       1
I               2.42606000      4.91090000      3.62425000      53
N               5.87095000     -1.16881000     -2.75763000       7
I              -4.69969000      2.62108000      4.08487000      53
H               2.62509000      0.50834500     -6.21647000       1
H               1.90087000     -6.43483000     -1.27410000       1
H               1.98526000      2.07001000     -6.22174000       1
N               1.85643000      1.09853000     -6.57689000       7
H               6.66179000     -0.97528800     -2.10247000       1
N               1.37119000     -6.59413000     -2.15591000       7
H              -4.23724000     -1.18984000      5.58448000       1
I              -5.12078000     -4.92966000     -0.91219300      53
H               5.45381000     -2.39969000     -4.41770000       1
I              -5.33604000      1.70474000     -4.88646000      53
I               2.18563000      4.56923000     -5.45384000      53
H              -5.51289000     -2.39969000     -4.41770000       1
I               2.44413000     -6.98291000      1.29075000      53
H               5.35895000      5.26248000      0.62759700       1
H               0.61523500     -7.26357000     -1.91643000       1
H               5.33810000     -2.09977000      4.90639000       1
N              -1.39165000      4.02385000      6.27756000       7
H              -7.49548000      0.19201400      1.16885000       1
C               6.28047000     -2.22143000     -3.72807000       6
I               5.63066000      1.70474000     -4.88646000      53
H              -1.35935000     -3.03877000     -6.94115000       1
I               5.84592000     -4.92966000     -0.91219300      53
H              -5.60776000      5.26248000      0.62759700       1
H              -1.60313000      4.90436000      5.75711000       1
H              -5.62860000     -2.09977000      4.90639000       1
I              -1.87287000      7.52754000     -0.39275000      53
P               7.58206000      1.00179000      1.64833000      15
H              -1.82756000     -4.56073000     -6.11013000       1
H               3.02536000     -6.38250000     -3.45071000       1
I              -1.70831000     -4.01506000      6.53909000      53
H              -4.63751000      5.70100000      2.81872000       1
H               6.51986000     -3.13076000     -3.17414000       1
C              -5.01409000     -1.92907000      5.79306000       6
I               6.26702000      2.62108000      4.08487000      53
H               4.66401000      5.91611000      2.83730000       1
H               4.60050000     -0.52177900      6.59442000       1
I              -1.60745000     -7.88340000     -0.49377100      53
H              -2.21735000      3.71665000      6.80670000       1
H              -4.50680000      6.67869000      0.58958200       1
P              -3.41818000     -6.75615000     -2.89730000      15
P               3.98010000      3.59310000      6.11171000      15
H              -0.60081000      4.21737000      6.93272000       1
C               2.24851000     -7.12173000     -3.24213000       6
I              -4.85100000     -5.45273000      3.62425000      53
H              -4.56946000     -2.86636000      6.13449000       1
H               2.08652000     -5.45926000      5.75711000       1
I              -1.63193000      6.89740000      4.14873000      53
I              -1.41667000      0.26299600      8.12299000      53
P              -3.42075000      0.98649000     -7.44724000      15
P              -6.99370000     -4.18447000      1.58795000      15
C              -1.88284000     -3.99219000     -7.03980000       6
C               1.80916000      1.09596000     -8.06874000       6
I              -1.97252000      3.84139000     -7.16193000      53
C              -5.45343000      6.28862000      0.96644900       6
H               4.68450000      6.92418000      0.64598900       1
H               2.83021000      7.23286000     -3.17414000       1
C               5.51327000      6.28862000      0.96644900       6
I              -4.98783000      6.00045000     -3.24651000      53
P              -7.10783000      3.60747000     -2.89730000      15
C               5.95261000     -1.92907000      5.79306000       6
H               1.63400000     -7.29243000     -4.12880000       1
H               7.15826000     -1.86548000     -4.27161000       1
N              -8.48571000      0.40638200      0.92616500       7
H              -8.51428000      0.89320200      0.00612329       1
H               1.65484000      0.06981530     -8.40759000       1
H               4.31934000     -2.07091000      7.11876000       1
H               0.98039200      1.73152000     -8.38920000       1
N              -5.40617000      6.29119000      2.45830000       7
N               5.07530000     -1.40147000      6.87927000       7
H               7.89229000      3.10005000     -1.91643000       1
N               5.56053000      6.29119000      2.45830000       7
H              -2.92373000     -3.83393000     -7.32546000       1
I              -1.01004000     -7.74255000      4.08487000      53
H               6.72946000     -1.18984000      5.58448000       1
I               8.88861000     -0.52806800     -0.94813900      53
I               6.11571000     -5.45273000      3.62425000      53
H               6.32920000      5.70100000      2.81872000       1
H               2.69314000     -8.05902000     -2.90070000       1
H              -8.94830000     -0.51350000      0.78130800       1
H               2.75580000      1.48603000     -8.44561000       1
H               1.88086000     -7.57065000      4.61749000       1
I               5.97887000      6.00045000     -3.24651000      53
H               8.37414000     -3.43944000      0.64598900       1
H              -6.30269000      5.91611000      2.83730000       1
H              -8.62195000      2.15389000      2.09404000       1
N              -5.89141000     -1.40147000      6.87927000       7
H              -6.36621000     -0.52177900      6.59442000       1
I               2.09666000     -2.69074000      8.54142000      53
N               2.29800000     -6.33977000      6.27756000       7
H               3.58531000     -7.03644000      4.76358000       1
H               1.35560000      8.88762000     -2.22849000       1
H               1.76417000      7.96394000     -4.41770000       1
I              -1.12673000      7.79204000     -4.95032000      53
H               6.45991000      6.67869000      0.58958200       1
H               6.39725000     -2.86636000      6.13449000       1
C               2.59083000      8.14219000     -3.72807000       6
H              -0.23287900     -5.00065000     -7.86634000       1
P               3.87795000     -4.19087000     -7.38686000      15
I              -4.94963000     -1.81195000     -7.74444000      53
H              -6.28220000      6.92418000      0.64598900       1
I               1.73159000      9.03405000      1.87326000      53
H              -5.27733000      7.26267000      2.81345000       1
C              -9.14544000      1.20047000      1.99539000       6
I              -5.09143000     -5.79439000     -5.45384000      53
I               1.62602000      4.66459000      8.08705000      53
C               2.70752000     -7.39240000      5.30712000       6
N              -1.22311000     -4.78628000     -8.10902000       7
I              -9.10206000      1.15590000     -2.49610000      53
P               0.30500200     -9.36184000      1.64833000      15
H              -5.36173000     -1.24217000      7.76109000       1
H              -9.09016000      0.63193400      2.92506000       1
I              -9.14992000     -2.83608000     -0.39275000      53
H               1.47229000     -6.64697000      6.80670000       1
P               0.18831100      6.17275000     -7.38686000      15
H               5.68937000      7.26267000      2.81345000       1
H               5.60497000     -1.24217000      7.76109000       1
N               8.64825000      3.76949000     -2.15591000       7
P              -3.29696000     -6.77052000      6.11171000      15
H               8.17345000      4.64918000     -2.44077000       1
H               1.64846000      8.26385000      4.90639000       1
H               3.08883000     -6.14625000      6.93272000       1
H              -4.93231000     -8.20973000      2.09404000       1
H               1.78600000      0.09151170      9.66279000       1
I               1.71713000     -6.52224000     -7.16193000      53
N               2.18130000      9.19481000     -2.75763000       7
P              -3.41365000      8.76406000     -2.92348000      15
H               8.35366000     -4.44752000      2.83730000       1
I               5.87527000     -5.79439000     -5.45384000      53
H               1.11155000      1.75322000      9.68118000       1
P              -6.98661000      3.59310000      6.11171000      15
H              -6.64736000     -2.07091000      7.11876000       1
I               6.01708000     -1.81195000     -7.74444000      53
H              -1.67124000      9.85012000      0.78130800       1
H               5.44950000      5.80290000     -6.11013000       1
H               2.70760000      7.49727000      6.13449000       1
H               9.17793000      3.92879000     -1.27410000       1
H              -1.12053000     -4.27776000      9.04131000       1
