200
cutoff_factor=1.20000000 nneightol=1.20000000 Lattice="28.50377000       0.00000000       0.00000000       0.00000000      28.00030000       0.00000000       0.00000000       0.00000000      29.44454000" Properties=species:S:1:pos:R:3:Z:I:1
I              -1.31278000     -1.14053000      1.33139000      53
P               0.47559800      1.61283000      1.43589000      15
H               0.67604200     -2.14863000     -0.35070500       1
H               0.89839100     -1.24204000     -1.74436000       1
I               0.49271400      1.45085000     -1.79481000      53
N               1.05455000     -2.17771000     -1.31927000       7
H               2.07843000     -2.35145000     -1.29132000       1
I               3.07280000     -0.31637600      1.64805000      53
H              -3.54361000      0.59904400     -0.78467800       1
H              -0.69089200     -3.03404000     -2.13328000       1
C               0.38060800     -3.24538000     -2.10966000       6
H               0.29204600     -1.57978000      3.84329000       1
H              -2.67829000      2.47087000     -2.03704000       1
I              -2.18503000      3.33808000      1.25023000      53
H               3.85967000      0.64247300     -1.81418000       1
H              -3.02949000      1.19944000     -3.08406000       1
H               0.57039900     -4.20575000     -1.62488000       1
H               0.79362600     -3.24009000     -3.12101000       1
C              -4.22134000      1.23855000     -1.35501000       6
N              -3.44318000      1.90341000     -2.43727000       7
H               4.22425000      2.01099000     -0.71138200       1
H               1.03786000     -3.17617000      3.51290000       1
I               0.14054500      1.50328000      4.64086000      53
C               0.80592400     -2.43762000      4.28107000       6
C               4.65162000      1.23855000     -1.35501000       6
I               2.33417000      4.18915000      1.47634000      53
H              -3.32173000      2.12182000      3.19584000       1
H               0.64798200      4.79440000     -1.62488000       1
H              -4.64871000      2.01099000     -0.71138200       1
P              -3.94326000     -2.98431000      1.41835000      15
H              -2.67891000      1.06750000      4.31078000       1
P               0.52886700      1.62170000     -5.01686000      15
I              -4.16271000     -2.76928000     -1.76153000      53
H              -4.07371000      0.65361800      3.41558000       1
H              -5.01329000      0.64247300     -1.81418000       1
H               5.32935000      0.59904400     -0.78467800       1
N              -3.57343000      1.41454000      3.91969000       7
H               1.71656000     -2.11609000      4.79167000       1
I               2.25659000     -4.81099000      1.47634000      53
I               2.26983000     -1.03399000     -4.96324000      53
I              -2.19551000     -0.19267600     -5.11998000      53
H              -4.06260000      2.51059000     -3.01542000       1
I               4.71025000     -2.76928000     -1.76153000      53
H               4.79925000      0.65361800      3.41558000       1
P               4.92970000     -2.98431000      1.41835000      15
H              -0.98525500     -3.39953000      4.85279000       1
I              -5.80016000     -0.31637600      1.64805000      53
N              -0.10180400     -3.07016000      5.28391000       7
C               0.45819200      5.75477000     -2.10966000       6
H               3.50145000      2.35352000      4.50444000       1
H               4.81036000      2.51059000     -3.01542000       1
I              -2.26262000     -5.66207000      1.25023000      53
N               5.42978000      1.90341000     -2.43727000       7
H              -0.61330800      5.96611000     -2.13328000       1
H              -0.37507900     -2.38163000      6.01730000       1
H               0.87121000      5.76006000     -3.12101000       1
I              -1.36374000      4.20419000     -4.97021000      53
I              -3.79146000     -3.00255000      4.62080000      53
H               5.84347000      1.19944000     -3.08406000       1
I               3.19308000      3.41350000     -4.84942000      53
N               5.29953000      1.41454000      3.91969000       7
H               5.55123000      2.12182000      3.19584000       1
H               1.11544000      5.82398000      3.51290000       1
H               0.75362600      6.85152000     -0.35070500       1
H               0.37467600     -3.85076000      5.77700000       1
C               4.42783000      2.01420000      4.97354000       6
C              -4.44514000      2.01420000      4.97354000       6
H               6.19467000      2.47087000     -2.03704000       1
P              -4.02027000     -2.86718000     -4.97336000      15
N               1.13214000      6.82244000     -1.31927000       7
I              -1.44133000     -4.79596000     -4.97021000      53
H               2.15602000      6.64870000     -1.29132000       1
H               4.21930000      1.25052000      5.72508000       1
H              -3.91478000      2.85683000      5.42092000       1
P              -3.86568000      6.01584000      1.41835000      15
H              -6.79453000     -2.35145000     -1.29132000       1
H              -2.75587000     -6.52928000     -2.03704000       1
H              -5.37151000      2.35352000      4.50444000       1
H              -0.90767100      5.60062000      4.85279000       1
H              -4.65367000      1.25052000      5.72508000       1
I               5.08150000     -3.00255000      4.62080000      53
P               4.85270000     -2.86718000     -4.97336000      15
P               0.39801400     -7.38732000      1.43589000      15
I               6.68793000      3.33808000      1.25023000      53
H               0.64661600     -1.56765000     -7.40698000       1
H               6.19405000      1.06750000      4.31078000       1
I              -4.08513000      6.23087000     -1.76153000      53
H               0.45226000      5.14939000      5.77700000       1
I               7.56018000     -1.14053000      1.33139000      53
I               0.41513000     -7.54930000     -1.79481000      53
H              -0.09227210     -3.17396000     -7.10282000       1
H               4.95818000      2.85683000      5.42092000       1
C               0.88350800      6.56253000      4.28107000       6
I              -6.53879000      4.18915000      1.47634000      53
N              -0.02422070      5.92999000      5.28391000       7
P               5.00728000      6.01584000      1.41835000      15
H               0.97597400      7.75811000     -1.74436000       1
P               0.29130200      1.55730000      7.85454000      15
I               3.11550000     -5.58665000     -4.84942000      53
I               4.78783000      6.23087000     -1.76153000      53
I              -1.23520000      7.85962000      1.33139000      53
H              -3.85931000      0.72490300     -7.05090000       1
H               4.14667000     -6.98916000     -0.71138200       1
I              -1.44590000     -1.16217000      7.97847000      53
I              -5.67988000      3.41350000     -4.84942000      53
C               0.11625900     -2.41028000     -7.85436000       6
N              -7.81841000     -2.17771000     -1.31927000       7
H              -7.97457000     -1.24204000     -1.74436000       1
H              -4.14018000     -6.48956000     -3.01542000       1
N              -3.52076000     -7.09674000     -2.43727000       7
H              -3.39931000     -6.87833000      3.19584000       1
I              -6.61638000     -4.81099000      1.47634000      53
I              -6.60314000     -1.03399000     -4.96324000      53
H               4.26390000      2.19404000     -6.81060000       1
H               0.36962900      7.42037000      3.84329000       1
I               2.87024000     -0.37147600      7.85768000      53
I               0.84751600      1.57312000     -8.20710000      53
I               6.67746000     -0.19267600     -5.11998000      53
I              -3.71388000      5.99760000      4.62080000      53
H              -4.72629000     -6.98916000     -0.71138200       1
H              -8.19692000     -2.14863000     -0.35070500       1
H              -4.60906000      2.19404000     -6.81060000       1
H               1.79415000      6.88406000      4.79167000       1
H               4.73278000     -6.48956000     -3.01542000       1
H              -0.81011800     -2.07096000     -8.32345000       1
P              -8.39736000      1.61283000      1.43589000      15
H               5.01365000      0.72490300     -7.05090000       1
I              -8.38025000      1.45085000     -1.79481000      53
H               3.42387000     -6.64663000      4.50444000       1
H              -2.51742000      2.45958000     -8.03622000       1
I               6.61034000     -5.66207000      1.25023000      53
I               0.06296110     -7.49687000      4.64086000      53
P              -3.94268000      6.13297000     -4.97336000      15
N              -4.33579000      1.50551000     -7.54399000       7
H               3.65372000      1.17613000     -7.97511000       1
I              -2.29157000      3.39049000      7.86466000      53
H              -7.15640000     -2.11609000      4.79167000       1
N               4.53717000      1.50551000     -7.54399000       7
P               0.45128300     -7.37845000     -5.01686000      15
H              -3.10707000     -7.80071000     -3.08406000       1
H              -0.29749500      6.61852000      6.01730000       1
C              -4.29893000     -7.76160000     -1.35501000       6
H               8.18207000     -3.03404000     -2.13328000       1
I               2.11606000      4.23181000      7.70792000      53
C               4.57403000     -7.76160000     -1.35501000       6
H              -3.99236000     -6.14332000      5.42092000       1
H              -7.83511000     -3.17617000      3.51290000       1
I               5.15908000      5.99760000      4.62080000      53
H               6.11709000     -6.52928000     -2.03704000       1
H              -3.62120000     -8.40111000     -0.78467800       1
H              -0.01468830      5.82619000     -7.10282000       1
N               5.35220000     -7.09674000     -2.43727000       7
H              -8.07934000     -3.24009000     -3.12101000       1
N              -3.65101000     -7.58561000      3.91969000       7
I               2.03848000     -4.76834000      7.70792000      53
P              -4.11011000     -2.95397000      7.81104000      15
P               4.93028000      6.13297000     -4.97336000      15
C              -8.49235000     -3.24538000     -2.10966000       6
H               1.88248000     -3.35698000     -8.51711000       1
H               3.78209000     -8.35768000     -1.81418000       1
H               5.47365000     -6.87833000      3.19584000       1
I              -5.75747000     -5.58665000     -4.84942000      53
I               3.15038000      8.68377000      1.64805000      53
H              -2.75649000     -7.93265000      4.31078000       1
H              -8.30256000     -4.20575000     -1.62488000       1
C              -8.06704000     -2.43762000      4.28107000       6
C              -3.42806000      2.13805000     -8.54682000       6
N               0.98796600     -3.00994000     -8.90821000       7
H              -8.58092000     -1.57978000      3.84329000       1
H               4.88060000     -6.14332000      5.42092000       1
H              -6.71695000      6.64870000     -1.29132000       1
P               9.34856000      1.61283000      1.43589000      15
H              -5.21924000      1.17613000     -7.97511000       1
P               4.76285000     -2.95397000      7.81104000      15
C               4.35024000     -6.98595000      4.97354000       6
I              -4.17102000     -2.92121000     -8.18704000      53
I               9.36568000      1.45085000     -1.79481000      53
H              -8.22498000      4.79440000     -1.62488000       1
I               2.34741000      7.96616000     -4.96324000      53
C              -4.52272000     -6.98595000      4.97354000       6
H              -5.44910000     -6.64663000      4.50444000       1
H               9.54900000     -2.14863000     -0.35070500       1
H               7.88771000     -3.39953000      4.85279000       1
P              -8.34410000      1.62170000     -5.01686000      15
I               4.70194000     -2.92121000     -8.18704000      53
I              -6.00272000     -0.37147600      7.85768000      53
I               2.99522000     -9.31653000      1.64805000      53
H              -4.15129000     -8.34653000      3.41558000       1
I               7.50922000      4.20419000     -4.97021000      53
H               5.25176000     -8.40111000     -0.78467800       1
I              -2.36915000     -5.60966000      7.86466000      53
H              -3.19613000      1.39950000     -9.31500000       1
H              -5.09087000     -8.35768000     -1.81418000       1
H               1.23967000     -2.30266000     -9.63206000       1
I              -8.73242000      1.50328000      4.64086000      53
H               9.77135000     -1.24204000     -1.74436000       1
N               5.22195000     -7.58561000      3.91969000       7
H               0.17138600     -2.06507000      9.81248000       1
C               9.25357000     -3.24538000     -2.10966000       6
H               9.16501000     -1.57978000      3.84329000       1
