200
cutoff_factor=1.20000000 nneightol=1.20000000 Lattice="27.79904000       0.00000000       0.00000000       0.00000000      27.87007000       0.00000000       0.00000000       0.00000000      29.62894000" Properties=species:S:1:pos:R:3:Z:I:1
I              -0.39989800     -0.38435700     -0.17748900      53
P               2.20533000     -2.19543000      0.02774840      15
P              -2.16041000      2.30425000      0.02264620      15
H              -2.45285000     -1.53204000     -1.78829000       1
H              -2.43396000     -1.09876000      2.35090000       1
H              -1.19310000     -2.39499000      2.35005000       1
H               2.26148000      2.08203000     -1.83528000       1
H               1.11252000      1.19408000      3.20023000       1
C              -1.83150000     -1.76449000      2.97316000       6
H               0.98932500      2.31583000     -3.07781000       1
H               3.05878000      1.85593000      1.90547000       1
H              -1.22805000     -1.18738000      3.67750000       1
I               4.04138000      0.44760200      0.03964520      53
H               1.90899000      3.06453000      1.87214000       1
H               2.20184000      1.00604000     -3.27069000       1
C               2.02509000      2.01803000     -2.89942000       6
I               0.50962400      4.04501000     -0.01720090      53
H              -2.64107000     -0.50106200     -3.08064000       1
H              -0.85125000     -2.08789000     -3.48948000       1
N              -2.74896000     -1.49111000     -2.78409000       7
N               2.56590000      2.55583000      2.50400000       7
I               2.10095000     -2.29152000      3.21138000      53
I              -2.29199000      2.11898000      3.20835000      53
C               1.83635000      1.89413000      3.62372000       6
I              -2.37084000      2.19848000     -3.20961000      53
I               2.53508000     -2.31042000     -3.18694000      53
C              -1.89328000     -2.39153000     -3.61335000       6
I              -4.85815000      0.44760200      0.03964520      53
I               0.43174000     -4.89002000     -0.01720090      53
H              -3.75331000     -1.75254000     -2.85042000       1
H               2.56219000      1.36363000      4.24438000       1
H              -2.03637000     -3.41858000     -3.26997000       1
H               1.32631000      2.66380000      4.20766000       1
N              -2.75048000     -2.64458000      3.74819000       7
H               3.26314000      3.22491000      2.85963000       1
N               2.92057000      2.95689000     -3.63949000       7
H              -3.33661000     -3.20269000      3.10415000       1
H              -2.19712000     -2.29082000     -4.65747000       1
I              -4.02214000     -3.99633000      0.23500300      53
H               2.78484000      3.93921000     -3.32772000       1
H              -2.19944000     -3.27676000      4.36803000       1
H              -3.35746000     -2.07130000      4.37020000       1
H               3.92321000      2.70536000     -3.52205000       1
H               2.69949000      2.93345000     -4.65396000       1
H               5.14621000     -1.75254000     -2.85042000       1
I               4.87738000     -3.99633000      0.23500300      53
I              -3.94426000      4.93870000      0.23500300      53
H              -5.84074000      1.85593000      1.90547000       1
H               1.83110000     -5.87051000      1.87214000       1
I               0.17226200      0.19335900      6.42981000      53
I              -0.27517700     -0.37490700     -6.44747000      53
H               2.70696000     -4.99583000     -3.32772000       1
H              -4.97631000      2.70536000     -3.52205000       1
H              -1.95848000      5.51646000     -3.26997000       1
H               6.44667000     -1.53204000     -1.78829000       1
N               6.15056000     -1.49111000     -2.78409000       7
H               6.46556000     -1.09876000      2.35090000       1
H               6.25845000     -0.50106200     -3.08064000       1
P              -2.23829000     -6.63078000      0.02264620      15
I               4.95526000      4.93870000      0.23500300      53
H              -1.11521000      6.54005000      2.35005000       1
P              -6.69419000     -2.19543000      0.02774840      15
H              -5.63638000      3.22491000      2.85963000       1
P               2.28322000      6.73960000      0.02774840      15
P               1.98950000     -2.41773000      6.39173000      15
P               6.73911000      2.30425000      0.02264620      15
H               5.56291000     -3.20269000      3.10415000       1
H               3.18526000     -5.71012000      2.85963000       1
P              -2.06839000      2.26926000     -6.44602000      15
P              -2.40479000      2.07927000      6.39787000      15
P               2.35896000     -2.16878000     -6.43988000      15
H              -6.63804000      2.08203000     -1.83528000       1
N              -6.33362000      2.55583000      2.50400000       7
H              -3.25873000      5.73235000      3.10415000       1
N               2.48801000     -6.37921000      2.50400000       7
H               5.54206000     -2.07130000      4.37020000       1
H               0.91144200     -6.61921000     -3.07781000       1
H               2.18360000     -6.85300000     -1.83528000       1
H              -2.12156000      5.65828000      4.36803000       1
I              -6.36444000     -2.31042000     -3.18694000      53
H              -6.69768000      1.00604000     -3.27069000       1
N               2.84268000     -5.97815000     -3.63949000       7
I               0.64299900      4.04246000     -6.37441000      53
N              -5.97895000      2.95689000     -3.63949000       7
I               6.52869000      2.19848000     -3.20961000      53
I              -0.71982400     -4.17743000      6.33971000      53
I               6.60753000      2.11898000      3.20835000      53
H               1.24842000     -6.27124000      4.20766000       1
N               6.14904000     -2.64458000      3.74819000       7
C              -1.81539000      6.54350000     -3.61335000       6
I               2.17884000      6.64352000      3.21138000      53
I               4.12181000      0.50955400     -6.49805000      53
H              -0.77336600      6.84715000     -3.48948000       1
C              -6.87443000      2.01803000     -2.89942000       6
I              -4.19863000     -0.64452200      6.46334000      53
H              -6.33733000      1.36363000      4.24438000       1
C               1.94720000     -6.91700000     -2.89942000       6
N              -2.67260000      6.29046000      3.74819000       7
I               2.61297000      6.62462000     -3.18694000      53
I              -2.44872000     -6.73655000     -3.20961000      53
H              -6.99053000      3.06453000      1.87214000       1
I              -6.79857000     -2.29152000      3.21138000      53
C               7.06802000     -1.76449000      2.97316000       6
I              -2.36988000     -6.81606000      3.20835000      53
H               2.98090000     -7.07910000      1.90547000       1
I              -0.64194000      4.75760000      6.33971000      53
C              -1.75362000      7.17054000      2.97316000       6
H              -2.37497000      7.40299000     -1.78829000       1
H              -6.11468000      3.93921000     -3.32772000       1
I               4.70089000     -0.64452200      6.46334000      53
H               2.62160000     -6.00158000     -4.65396000       1
I               0.56511500     -4.89257000     -6.37441000      53
I              -4.77771000      0.50955400     -6.49805000      53
C               1.75846000     -7.04090000      3.62372000       6
H               3.84533000     -6.22968000     -3.52205000       1
C              -7.06317000      1.89413000      3.62372000       6
C               7.00624000     -2.39153000     -3.61335000       6
H              -6.20003000      2.93345000     -4.65396000       1
H               6.86315000     -3.41858000     -3.26997000       1
N              -2.67108000      7.44392000     -2.78409000       7
H              -2.11924000      6.64421000     -4.65747000       1
H               7.70643000     -2.39499000      2.35005000       1
I               3.86060000      3.87314000      6.39029000      53
H               1.03463000     -7.74095000      3.20023000       1
H               6.70240000     -2.29082000     -4.65747000       1
H              -7.78700000      1.19408000      3.20023000       1
I               8.49962000     -0.38435700     -0.17748900      53
H              -2.35608000      7.83627000      2.35090000       1
I              -3.96351000     -4.05469000     -6.40795000      53
H              -3.67543000      7.18250000     -2.85042000       1
I              -0.32201500      8.55068000     -0.17748900      53
H              -5.71426000     -5.71012000      2.85963000       1
H               7.67147000     -1.18738000      3.67750000       1
H               5.64079000      5.73235000      3.10415000       1
H              -6.19256000     -4.99583000     -3.32772000       1
H               1.93865000      1.95723000      8.18029000       1
H              -2.14214000     -1.75353000      8.18379000       1
H               6.70008000     -3.27676000      4.36803000       1
H              -1.15016000      7.74766000      3.67750000       1
H              -5.05419000     -6.22968000     -3.52205000       1
H              -3.27958000      6.86374000      4.37020000       1
H              -7.91020000      2.31583000     -3.07781000       1
H               2.12396000     -7.92899000     -3.27069000       1
I              -3.88563000      4.88034000     -6.40795000      53
H               2.64219000      1.41023000     -8.46972000       1
H               1.48417000      2.61569000     -8.46755000       1
I               3.78271000     -5.06189000      6.39029000      53
I              -5.03893000      3.87314000      6.39029000      53
H               8.04827000     -2.08789000     -3.48948000       1
H               2.48430000     -7.57140000      4.24438000       1
I               4.93601000     -4.05469000     -6.40795000      53
H              -7.57321000      2.66380000      4.20766000       1
H              -1.57359000     -2.88442000     -8.59337000       1
H              -2.80947000     -1.58425000     -8.63009000       1
N              -6.05684000     -5.97815000     -3.63949000       7
I              -9.29942000     -0.38435700     -0.17748900      53
I              -8.38990000      4.04501000     -0.01720090      53
H               5.22409000      7.18250000     -2.85042000       1
I              -0.47778200     -9.31939000     -0.17748900      53
H              -2.56318000      8.43397000     -3.08064000       1
P               6.49473000      2.07927000      6.39787000      15
P               2.06738000      6.51731000      6.39173000      15
I               3.96349000     -8.48743000      0.03964520      53
H              -7.06842000     -5.87051000      1.87214000       1
N              -6.41151000     -6.37921000      2.50400000       7
P               6.66123000     -6.63078000      0.02264620      15
H              -5.91862000     -7.07910000      1.90547000       1
P              -6.54056000     -2.16878000     -6.43988000      15
P              -6.61630000      6.73960000      0.02774840      15
H               6.94104000      5.51646000     -3.26997000       1
I               5.01389000      4.88034000     -6.40795000      53
P              -2.14627000     -6.66578000     -6.44602000      15
N               2.09115000      2.04241000     -9.08956000       7
N              -1.92106000     -1.73010000      9.19826000       7
H              -0.91841800     -1.98163000      9.31570000       1
N               6.22693000      6.29046000      3.74819000       7
I              -5.11681000     -5.06189000      6.39029000      53
P               2.43684000      6.76626000     -6.43988000      15
P               6.83113000      2.26926000     -6.44602000      15
I              -6.28655000      6.62462000     -3.18694000      53
C               2.24250000      1.85652000      9.22441000       6
P              -2.48267000     -6.85576000      6.39787000      15
P              -6.91002000     -2.41773000      6.39173000      15
H              -2.05679000     -0.74777900      9.51003000       1
H              -6.71592000     -6.85300000     -1.83528000       1
I              -8.46778000     -4.89002000     -0.01720090      53
C              -2.29942000     -2.35392000     -9.21404000       6
I              -4.93603000     -8.48743000      0.03964520      53
H               2.09941000      0.82947400      9.56778000       1
H               6.77796000      5.65828000      4.36803000       1
H              -6.27792000     -6.00158000     -4.65396000       1
I               6.45080000     -6.73655000     -3.20961000      53
H               5.61994000      6.86374000      4.37020000       1
H               1.50502000      1.48430000     -9.73360000       1
I               6.52965000     -6.81606000      3.20835000      53
I              -6.72068000      6.64352000      3.21138000      53
H               6.52455000      7.40299000     -1.78829000       1
H              -0.87263300     -1.02313000     -9.97812000       1
I               1.68705000     -2.48850000      9.62814000      53
I              -2.22866000      1.93763000      9.65082000      53
