200
cutoff_factor=1.20000000 nneightol=1.20000000 Lattice="27.88619000       0.00000000       0.00000000       0.00000000      28.62646000       0.00000000       0.00000000       0.00000000      28.63650000" Properties=species:S:1:pos:R:3:Z:I:1
H              -1.99804000      0.63672800     -0.51827200       1
I              -0.11095300     -1.56007000      1.65018000      53
P               1.74866000      1.07413000      1.54642000      15
I               1.39694000      1.50511000     -1.58140000      53
C              -2.44736000      1.43226000     -1.11702000       6
H              -1.69165000      2.16578000     -1.40593000       1
H               0.88672800     -2.97010000     -0.26528700       1
H              -2.28353000      0.35530500     -2.92704000       1
I              -0.85843300      3.02478000      2.02158000      53
H              -3.25637000      1.91525000     -0.56428000       1
N              -3.01621000      0.82789500     -2.35587000       7
H               1.06631000     -2.83020000     -2.69209000       1
N               1.13659000     -3.80893000     -0.82869800       7
H              -3.74374000      0.12599700     -2.13412000       1
H               2.68613000     -2.90050000     -1.92047000       1
C               1.76564000     -3.45078000     -2.12707000       6
H               0.25936600     -4.33551000     -1.00104000       1
I               4.32061000     -0.73291700      1.05997000      53
H              -2.33526000      0.05974040      3.91559000       1
P              -2.89325000     -3.32162000      1.54454000      15
H               1.77642000     -4.39400000     -0.25270200       1
I              -2.44512000     -3.76722000     -1.57174000      53
I              -4.62249000     -0.73291700      1.05997000      53
H              -3.45325000      1.55096000     -2.96650000       1
H               0.43413600      4.72236000     -1.00104000       1
I              -0.84245500     -0.83778600     -4.70183000      53
H               0.73545100     -3.09723000      3.67010000       1
H               1.95119000      4.66386000     -0.25270200       1
P               1.69442000      1.13740000     -4.74462000      15
I               2.27805000      0.94481100      4.68680000      53
H              -2.70624000      2.43372000      3.88353000       1
H              -1.35262000      0.90808300      5.15493000       1
C              -2.36254000      0.62346800      4.85093000       6
N               1.31136000      5.24893000     -0.82869800       7
H               1.98504000     -4.37206000     -2.67157000       1
I               3.56621000      3.86128000      1.61852000      53
H               5.19935000      0.12599700     -2.13412000       1
H               2.82041000     -2.19820000      4.51196000       1
N               1.34240000     -3.68552000      4.27569000       7
H               2.15981000      4.68581000     -2.67157000       1
I               3.69692000     -1.37594000     -4.33512000      53
N              -3.15561000      1.86478000      4.62971000       7
H               1.92477000     -4.27161000      3.64438000       1
I              -2.27035000      5.29065000     -1.57174000      53
H               5.68673000      1.91525000     -0.56428000       1
H               1.06150000      6.08777000     -0.26528700       1
H              -4.13041000      1.62516000      4.35493000       1
C               2.19926000     -2.83152000      5.14927000       6
C               1.94041000      5.60708000     -2.12707000       6
H              -2.84817000      0.03902020      5.63569000       1
H               2.09954000      4.78625000      3.64438000       1
I              -2.98568000     -3.09758000      4.71208000      53
H               1.54983000     -2.21983000      5.77954000       1
I               3.39144000     -5.19658000      1.61852000      53
H               5.48985000      1.55096000     -2.96650000       1
N               5.92689000      0.82789500     -2.35587000       7
I              -1.03320000     -6.03308000      2.02158000      53
I              -0.11167900      3.72066000     -5.28404000      53
P              -2.79247000     -3.42763000     -4.73384000      15
P              -2.71848000      5.73625000      1.54454000      15
H               0.74772100     -4.30275000      4.86738000       1
H               4.81269000      1.62516000      4.35493000       1
C               6.49574000      1.43226000     -1.11702000       6
I              -5.37689000      3.86128000      1.61852000      53
H              -3.22409000      2.42309000      5.50338000       1
H               0.92249100      4.75512000      4.86738000       1
H               1.24108000      6.22766000     -2.69209000       1
I              -5.24617000     -1.37594000     -4.33512000      53
H               6.94506000      0.63672800     -0.51827200       1
N               1.51717000      5.37234000      4.27569000       7
H               2.86090000      6.15737000     -1.92047000       1
H               0.91022100      5.96063000      3.67010000       1
P               6.04985000     -3.32162000      1.54454000      15
I               4.38308000      3.02853000     -4.73936000      53
H              -6.25697000     -2.90050000     -1.92047000       1
I              -4.56002000      3.02853000     -4.73936000      53
H              -1.86642000     -6.89208000     -1.40593000       1
H               6.65956000      0.35530500     -2.92704000       1
H               2.82360000     -3.48320000      5.76473000       1
H               1.29109000     -2.35277000     -6.83728000       1
P              -7.19444000      1.07413000      1.54642000      15
I              -0.28644900     -5.33720000     -5.28404000      53
H              -3.10691000     -0.09392610     -6.98113000       1
N               5.78748000      1.86478000      4.62971000       7
H              -1.61136000      0.77513700     -7.46189000       1
I               6.49797000     -3.76722000     -1.57174000      53
I               0.06381700      7.49780000      1.65018000      53
H               6.60784000      0.05974040      3.91559000       1
H               7.25145000      2.16578000     -1.40593000       1
H               6.23686000      2.43372000      3.88353000       1
I              -5.55166000     -5.19658000      1.61852000      53
P              -2.61770000      5.63024000     -4.73384000      15
I               1.22217000     -7.55275000     -1.58140000      53
I              -7.54615000      1.50511000     -1.58140000      53
H              -6.12269000     -2.19820000      4.51196000       1
H              -3.43114000     -7.14262000     -0.56428000       1
I              -0.58371500     -0.70483900      7.91499000      53
I              -2.81091000      5.96029000      4.71208000      53
C              -2.62213000     -7.62561000     -1.11702000       6
H               2.56486000     -3.61615000     -6.85209000       1
C               6.58056000      0.62346800      4.85093000       6
H              -2.88101000     -6.62414000      3.88353000       1
I              -6.66504000      0.94481100      4.68680000      53
I               5.95742000     -3.09758000      4.71208000      53
P               1.95316000      1.27035000      7.87219000      15
C              -2.62128000      0.49052200     -7.76589000       6
I               2.01931000      0.81186400     -7.93002000      53
C              -7.17746000     -3.45078000     -2.12707000       6
H              -3.48283000      2.29015000     -7.11343000       1
C               1.94052000     -2.96447000     -7.46755000       6
P               1.57389000     -7.98373000      1.54642000      15
I               0.14706100      3.85361000      7.33278000      53
H               5.71901000      2.42309000      5.50338000       1
H               6.09492000      0.03902020      5.63569000       1
H              -6.99190000      4.66386000     -0.25270200       1
H              -7.16667000     -4.39400000     -0.25270200       1
C               2.37403000      6.22634000      5.14927000       6
P               6.15063000     -3.42763000     -4.73384000      15
H               2.99837000      5.57466000      5.76473000       1
H              -8.05637000     -2.97010000     -0.26528700       1
P               6.22462000      5.73625000      1.54454000      15
H              -6.95806000     -4.37206000     -2.67157000       1
I               6.67274000      5.29065000     -1.57174000      53
H              -6.78329000      4.68581000     -2.67157000       1
H              -2.17281000     -8.42114000     -0.51827200       1
N              -7.80651000     -3.80893000     -0.82869800       7
P              -7.24868000      1.13740000     -4.74462000      15
H               2.99518000      6.85967000      4.51196000       1
I               4.20831000     -6.02933000     -4.73936000      53
H              -7.87678000     -2.83020000     -2.69209000       1
H               2.56167000     -2.33114000     -8.10486000       1
H              -3.62802000     -7.50691000     -2.96650000       1
N              -3.41435000      1.73183000     -7.98711000       7
H              -6.08220000      6.15737000     -1.92047000       1
I               8.08466000      3.02478000      2.02158000      53
P              -2.53373000     -3.29468000      7.88298000      15
H               0.48898100     -4.43569000     -7.74944000       1
C              -6.74383000     -2.83152000      5.14927000       6
H              -7.01833000     -4.27161000      3.64438000       1
I              -0.02770870     -5.20425000      7.33278000      53
I              -4.73479000     -6.02933000     -4.73936000      53
H               5.51196000     -7.14262000     -0.56428000       1
H               0.66375100      4.62217000     -7.74944000       1
H              -2.59400000     -0.07320580     -8.70123000       1
H               5.83618000     -0.09392610     -6.98113000       1
H              -6.11950000     -3.48320000      5.76473000       1
H              -6.84356000      4.78625000      3.64438000       1
H               1.72460000      6.83804000      5.77954000       1
I               8.83214000     -1.56007000      1.65018000      53
I              -3.24442000     -3.23052000     -7.90474000      53
N              -3.19098000     -8.22997000     -2.35587000       7
H               2.73963000      5.44172000     -6.85209000       1
N              -3.33038000     -7.19309000      4.62971000       7
C              -7.00269000      5.60708000     -2.12707000       6
H               7.59048000      0.90808300      5.15493000       1
N               1.08366000     -3.81847000     -8.34113000       7
H               5.46027000      2.29015000     -7.11343000       1
I               3.95566000     -1.24300000      8.28170000      53
H              -3.39886000     -6.63477000      5.50338000       1
N              -7.63174000      5.24893000     -0.82869800       7
I              -9.05405000     -1.56007000      1.65018000      53
P               1.51965000     -7.92046000     -4.74462000      15
I               8.10064000     -0.83778600     -4.70183000      53
N              -7.60070000     -3.68552000      4.27569000       7
H              -4.38915000      1.49222000     -8.26189000       1
I              -0.66768500      8.22008000     -4.70183000      53
I              -4.44772000      8.32495000      1.05997000      53
H              -2.45830000     -8.70256000     -2.92704000       1
H              -2.96498000      2.30077000     -8.73329000       1
H              -8.20765000     -3.09723000      3.67010000       1
I              -4.30128000      3.16148000      7.87745000      53
I               4.49538000      8.32495000      1.05997000      53
H               0.47671000     -3.23018000     -8.94672000       1
H               4.55395000      1.49222000     -8.26189000       1
I               2.10328000     -8.11305000      4.68680000      53
H              -4.30518000     -7.43270000      4.35493000       1
I               3.87169000      7.68192000     -4.33512000      53
H              -7.39327000     -2.21983000      5.77954000       1
H               5.31508000     -7.50691000     -2.96650000       1
I               4.64182000      3.16148000      7.87745000      53
H               1.46586000      6.70509000     -6.83728000       1
P               6.32540000      5.63024000     -4.73384000      15
I              -4.98743000     -1.24300000      8.28170000      53
H              -8.68373000     -4.33551000     -1.00104000       1
H              -1.52739000     -8.14978000      5.15493000       1
I               6.13219000      5.96029000      4.71208000      53
H              -8.50896000      4.72236000     -1.00104000       1
H               6.06209000     -6.62414000      3.88353000       1
H               4.63791000     -7.43270000      4.35493000       1
N               5.52874000      1.73183000     -7.98711000       7
C               2.11529000      6.09339000     -7.46755000       6
H              -1.82327000      9.69459000     -0.51827200       1
H              -2.02479000      0.48825100      9.68978000       1
N               1.25843000      5.23939000     -8.34113000       7
H              -7.88160000      6.08777000     -0.26528700       1
C               6.32096000     -7.62561000     -1.11702000       6
H               7.07668000     -6.89208000     -1.40593000       1
H              -5.94473000      5.57466000      5.76473000       1
H              -3.91851000     -8.93187000     -2.13412000       1
C               6.32182000      0.49052200     -7.76589000       6
