200
cutoff_factor=1.20000000 nneightol=1.20000000 Lattice="28.31619000       0.00000000       0.00000000       0.00000000      28.85946000       0.00000000       0.00000000       0.00000000      29.27768000" Properties=species:S:1:pos:R:3:Z:I:1
H               0.41182500     -1.30334000     -0.95520000       1
H               1.94023000      0.40488500     -0.16810900       1
N               1.26183000     -1.57840000     -0.43202600       7
H               0.98942600     -1.73213000      0.56192000       1
C               2.32591000     -0.53659800     -0.56569200       6
I              -2.56576000     -1.09126000     -0.34455100      53
H               1.58369000     -2.49581000     -0.79419700       1
H               2.57459000     -0.43054700     -1.62421000       1
H               3.20069000     -0.86098800      0.00220498       1
I              -0.65817700      1.70396000      2.89178000      53
H              -2.66851000      2.24410000     -0.46754000       1
I               0.00027710      0.89055900     -3.44142000      53
H              -1.45997000      3.46244000      0.05830430       1
I               0.16642300     -2.71293000      2.81788000      53
P              -2.51748000     -0.91197100      2.85741000      15
C              -2.52348000      3.21884000      0.00385190       6
I               2.05272000      3.75183000     -0.37748600      53
H              -2.96961000      3.23104000      1.00102000       1
P              -2.59948000     -0.88335800     -3.58326000      15
I               3.79935000      0.94069800      2.83359000      53
H              -3.03070000     -3.75579000     -0.42753700       1
P               1.97562000      3.54422000      2.81604000      15
I              -0.77119100     -3.58717000     -3.46181000      53
H               1.59953000     -1.68178000      4.61938000       1
P               1.78406000      3.48750000     -3.59888000      15
N              -3.20273000      4.25167000     -0.83030600       7
H              -2.79942000      4.27206000     -1.78869000       1
H               2.77357000     -0.49599400      4.63607000       1
I               2.11367000     -5.20716000     -0.37748600      53
H              -1.39903000     -5.49655000      0.05830430       1
H              -2.73848000     -4.68693000     -1.78869000       1
N              -3.14178000     -4.70731000     -0.83030600       7
H              -5.75163000     -0.86098800      0.00220498       1
N               2.33014000     -1.23978000      5.21985000       7
I               4.44395000      1.66325000     -3.48911000      53
H              -4.21907000      4.04960000     -0.90335800       1
I              -4.50837000      1.66325000     -3.48911000      53
I              -5.15298000      0.94069800      2.83359000      53
I               3.75249000     -2.82904000     -3.68069000      53
H              -1.71828000      2.55600000      5.16015000       1
H               1.72446000      0.07926890     -5.77468000       1
H              -3.09165000      5.20320000     -0.42753700       1
C              -2.46253000     -5.74015000      0.00385190       6
H               0.99494200      0.06351400      6.20632000       1
H               4.73325000      4.04960000     -0.90335800       1
I              -4.36595000     -3.50505000      2.93977000      53
P               2.03657000     -5.41477000      2.81604000      15
I              -0.83213900      5.37181000     -3.46181000      53
I               4.58637000     -3.50505000      2.93977000      53
I               6.38656000     -1.09126000     -0.34455100      53
H              -4.15812000     -4.90938000     -0.90335800       1
H              -2.90866000     -5.72794000      1.00102000       1
H               3.04742000     -1.95544000      5.41175000       1
H              -6.37773000     -0.43054700     -1.62421000       1
I              -2.56886000     -0.89929700      6.06680000      53
C              -6.62641000     -0.53659800     -0.56569200       6
H               1.52274000      6.46317000     -0.79419700       1
H               6.28381000      2.24410000     -0.46754000       1
C               1.74665000     -0.68239700      6.47429000       6
P               1.84501000     -5.47149000     -3.59888000      15
H               0.67792700     -1.02632000     -6.72701000       1
I               0.10547500      6.24605000      2.81788000      53
H               5.98271000      3.23104000      1.00102000       1
C               1.61869000     -0.47142000     -6.71148000       6
H               4.79420000     -4.90938000     -0.90335800       1
H               2.76161000     -2.08864000     -5.99661000       1
I              -5.19983000     -2.82904000     -3.68069000      53
N              -1.68521000      3.11011000      6.04035000       7
H               5.92162000     -3.75579000     -0.42753700       1
H              -7.01210000      0.40488500     -0.16810900       1
H              -0.76205500      3.58710000      6.04568000       1
P               6.43485000     -0.91197100      2.85741000      15
C               6.42884000      3.21884000      0.00385190       6
N               5.74959000      4.25167000     -0.83030600       7
H              -2.60757000     -6.71489000     -0.46754000       1
H              -2.69268000     -4.19524000      5.29209000       1
H              -3.29182000      2.90528000     -5.82025000       1
H               1.29109000     -1.50125000      7.03304000       1
H               0.92847700      7.22685000      0.56192000       1
I               1.86433000      3.70101000      6.05934000      53
I              -2.65764000     -0.85144100     -6.79394000      53
P               6.35284000     -0.88335800     -3.58326000      15
H              -2.03149000      4.18180000     -5.80223000       1
H              -1.66875000      2.46381000      6.85668000       1
N               2.74515000     -1.44235000     -6.81293000       7
N               1.20088000      7.38058000     -0.43202600       7
H               2.55142000     -0.22473700      7.05106000       1
N               5.81054000     -4.70731000     -0.83030600       7
I              -4.42690000      5.45393000      2.93977000      53
H              -2.75363000      4.76375000      5.29209000       1
I               4.52542000      5.45393000      2.93977000      53
H               6.15290000      4.27206000     -1.78869000       1
H               0.35087700      7.65565000     -0.95520000       1
H              -6.17875000     -0.49599400      4.63607000       1
H               1.67673000      0.21129100     -7.56120000       1
H              -1.97054000     -4.77719000     -5.80223000       1
H               3.66830000     -0.96535700     -6.80760000       1
H              -7.36863000     -2.49581000     -0.79419700       1
I              -0.59722800     -7.25503000      2.89178000      53
I               1.80055000      3.50724000     -6.78648000      53
H               5.86067000      5.20320000     -0.42753700       1
N              -7.69049000     -1.57840000     -0.43202600       7
I              -6.89960000      3.75183000     -0.37748600      53
C              -2.81167000      4.08103000      6.14180000       6
C              -2.83627000      3.72414000     -6.37900000       6
H              -1.53549000      2.45110000     -7.44153000       1
H               6.21385000     -4.68693000     -1.78869000       1
H              -3.75243000      3.52613000      6.12627000       1
I               3.69155000      6.12995000     -3.68069000      53
H              -0.70110600     -5.37189000      6.04568000       1
H              -7.96290000     -1.73213000      0.56192000       1
H              -5.90490000     -1.95544000      5.41175000       1
I               1.92528000     -5.25797000      6.05934000      53
H               7.49235000      3.46244000      0.05830430       1
I              -2.62671000      7.86773000     -0.34455100      53
C              -2.75072000     -4.87795000      6.14180000       6
P              -6.97670000      3.54422000      2.81604000      15
H               6.04366000     -5.72794000      1.00102000       1
H              -1.65733000     -6.40299000      5.16015000       1
H               2.71208000     -1.99646000     -7.69313000       1
N              -6.62218000     -1.23978000      5.21985000       7
N              -1.62426000     -5.84888000      6.04035000       7
N              -2.25277000      3.16675000     -7.63344000       7
I              -6.83865000     -5.20716000     -0.37748600      53
H               5.66050000      2.90528000     -5.82025000       1
C               6.48979000     -5.74015000      0.00385190       6
H              -5.28402000     -0.96535700     -6.80760000       1
H               3.13974000      8.09800000      0.00220498       1
H              -8.54050000     -1.30334000     -0.95520000       1
C              -2.77532000     -5.23485000     -6.37900000       6
H              -2.64495000     -4.32726000      7.07860000       1
C               2.26496000      8.42239000     -0.56569200       6
P              -7.16826000      3.48750000     -3.59888000      15
H               1.53858000      7.27721000      4.61938000       1
H              -3.52702000     -4.48894000     -6.64696000       1
I               0.06122590     -8.06843000     -3.44142000      53
H               5.19989000      3.52613000      6.12627000       1
H              -3.58797000      4.47005000     -6.64696000       1
H               2.00117000     -8.55410000     -0.16810900       1
H              -7.35279000     -1.68178000      4.61938000       1
I               6.38346000     -0.89929700      6.06680000      53
H              -6.19072000     -2.08864000     -5.99661000       1
I              -5.26078000      6.12995000     -3.68069000      53
H              -2.70589000      4.63172000      7.07860000       1
I               1.86150000     -5.45175000     -6.78648000      53
P              -2.57842000      8.04702000      2.85741000      15
I               8.29414000      1.70396000      2.89178000      53
H              -3.69148000     -5.43285000      6.12627000       1
H              -3.23087000     -6.05371000     -5.82025000       1
H               2.51365000      8.52844000     -1.62421000       1
H              -2.98338000      2.72475000     -8.23390000       1
H               6.25964000     -4.19524000      5.29209000       1
P              -6.91575000     -5.41477000      2.81604000      15
P              -2.66043000      8.07563000     -3.58326000      15
I              -4.44742000     -7.29574000     -3.48911000      53
H               7.23404000      2.55600000      5.16015000       1
H               6.34476000     -6.71489000     -0.46754000       1
H              -7.22786000      0.07926890     -5.77468000       1
I               4.50490000     -7.29574000     -3.48911000      53
H              -1.80934000      3.91054000     -8.21721000       1
I               6.29469000     -0.85144100     -6.79394000      53
N              -6.20717000     -1.44235000     -6.81293000       7
I               3.86029000     -8.01829000      2.83359000      53
H               2.98647000      7.00355000      5.41175000       1
H               7.55330000     -5.49655000      0.05830430       1
I              -0.67786500      1.72341000      9.17259000      53
H               6.19870000      4.76375000      5.29209000       1
H               9.36415000     -1.30334000     -0.95520000       1
H               2.70066000      6.87034000     -5.99661000       1
H              -6.40090000     -0.22473700      7.05106000       1
H               1.87928000      9.36387000     -0.16810900       1
I               8.18113000     -3.58717000     -3.46181000      53
H              -1.60780000     -6.49518000      6.85668000       1
C               6.11606000      3.72414000     -6.37900000       6
N               2.26919000      7.71921000      5.21985000       7
C               6.14065000      4.08103000      6.14180000       6
I              -8.78590000     -2.71293000      2.81788000      53
I              -8.95204000      0.89055900     -3.44142000      53
I               8.95260000      0.89055900     -3.44142000      53
H               5.36435000      4.47005000     -6.64696000       1
P              -2.58535000     -0.91903700      9.25440000      15
P              -7.10731000     -5.47149000     -3.59888000      15
H               5.42530000     -4.48894000     -6.64696000       1
C              -7.20568000     -0.68239700      6.47429000       6
H               5.26084000     -5.43285000      6.12627000       1
I               0.07453780     -2.74328000      9.36417000      53
H              -1.74839000     -5.04845000     -8.21721000       1
C               2.38686000     -9.49559000     -0.56569200       6
N              -2.19182000     -5.79224000     -7.63344000       7
H              -7.42958000      6.46317000     -0.79419700       1
H               2.63554000     -9.38953000     -1.62421000       1
I              -5.09203000     -8.01829000      2.83359000      53
I               9.11875000     -2.71293000      2.81788000      53
N               7.26711000      3.11011000      6.04035000       7
C              -7.33364000     -0.47142000     -6.71148000       6
H               6.92083000      4.18180000     -5.80223000       1
I               0.00346156      0.90147900     -9.91351000      53
H              -5.81258000      8.09800000      0.00220498       1
H              -1.47454000     -6.50789000     -7.44153000       1
C               6.20160000     -4.87795000      6.14180000       6
