200
cutoff_factor=1.20000000 nneightol=1.20000000 Lattice="28.65585000       0.00000000       0.00000000       0.00000000      29.12566000       0.00000000       0.00000000       0.00000000      29.37067000" Properties=species:S:1:pos:R:3:Z:I:1
H               0.25344200      0.07106270     -0.80347600       1
N              -0.01754370     -0.67061400     -1.48257000       7
H              -0.56527100     -1.38350000     -0.95357300       1
H               0.87077300     -1.07912000     -1.83192000       1
I               1.50420000      1.42288000      1.00979000      53
C              -0.82484100     -0.10647900     -2.59911000       6
H              -1.73029000      0.33931700     -2.18094000       1
H              -0.22653600      0.65193800     -3.10935000       1
H              -0.01102130     -0.99237000      3.11281000       1
I              -2.31066000     -2.49241000      0.57756900      53
H              -0.86464600      0.57661500      3.28903000       1
H              -1.08018000     -0.91703100     -3.28565000       1
I              -2.95507000      1.98301000      0.59000000      53
C              -0.26651300     -0.18187500      3.79936000       6
I               2.14870000     -3.15959000      1.02271000      53
P              -0.40593900      3.99227000      0.80418000      15
P               4.05332000     -0.58634600      0.79583000      15
H               0.63884000      0.26384700      4.21783000       1
I               3.50757000     -0.55794200     -2.39334000      53
I              -0.13978900      4.03971000     -2.40483000      53
H               3.59427000      2.83003000     -1.68872000       1
P              -4.86525000     -0.58634600      0.79583000      15
N              -1.07413000     -0.74607800      4.91564000       7
H              -1.96242000     -1.15444000      4.56604000       1
P              -0.40590200     -5.06559000      0.80418000      15
I              -0.13975200     -5.01815000     -2.40483000      53
H               2.72892000      3.06642000      3.78037000       1
H              -3.82049000      3.14257000     -2.61709000       1
H              -0.52657800     -1.45908000      5.44466000       1
I              -0.95166600      3.96345000      3.99339000      53
H              -1.34519000     -0.00445259      5.59475000       1
H              -4.20560000      3.33469000      2.40345000       1
I               4.31944000     -0.63325700      4.00485000      53
H               2.49704000     -4.49693000     -2.96638000       1
C               4.19259000      3.58840000     -2.19900000       6
I              -5.41100000     -0.55794200     -2.39334000      53
H               2.49701000      4.56093000     -2.96638000       1
H               3.11442000      3.41068000     -3.99470000       1
I              -4.59913000     -0.63325700      4.00485000      53
I              -2.59577000      1.49880000     -5.38820000      53
H               4.71296000      3.33469000      2.40345000       1
H              -5.32430000      2.83003000     -1.68872000       1
N               3.38535000      4.15241000     -3.31565000       7
I               5.96350000      1.98301000      0.59000000      53
H               3.89442000     -4.26853000      2.55357000       1
C              -4.72598000      3.58840000     -2.19900000       6
I               2.14866000      5.89827000      1.02271000      53
I               1.21913000     -2.41650000     -5.82091000      53
H               4.44789000      4.39902000     -1.51254000       1
I               1.86356000      2.05888000     -5.80796000      53
H              -4.47068000      4.39902000     -1.51254000       1
H               5.09807000      3.14257000     -2.61709000       1
I              -0.95162900     -5.09441000      3.99339000      53
C               3.63429000      3.51211000      4.19885000       6
H               4.44792000     -4.65884000     -1.51254000       1
H              -4.47065000     -4.65884000     -1.51254000       1
H               3.89439000      4.78933000      2.55357000       1
H              -3.58835000      4.48465000      3.43218000       1
H              -3.58831000     -4.57321000      3.43218000       1
N               4.44192000      4.07631000      3.08258000       7
P               3.77371000     -0.51049500     -5.60236000      15
N              -4.47664000      4.07631000      3.08258000       7
N               3.38539000     -4.90545000     -3.31565000       7
H               4.23240000      2.75360000      4.70917000       1
H               3.93313000     -4.19259000     -3.84467000       1
P              -0.68554700      4.06812000     -5.59401000      15
I              -2.31070000      6.56545000      0.57756900      53
I              -3.24007000     -3.08364000     -5.37571000      53
H              -5.02414000     -4.26853000      2.55357000       1
I               6.60791000     -2.49241000      0.57756900      53
H              -4.68617000      2.75360000      4.70917000       1
C               4.19263000     -5.46947000     -2.19900000       6
H              -1.34519000      0.14710300     -7.20166000       1
H               3.93310000      4.86527000     -3.84467000       1
H               3.37881000      4.32260000      4.88541000       1
N               4.44196000     -4.98155000      3.08258000       7
N              -4.47661000     -4.98155000      3.08258000       7
H               3.59430000     -6.22783000     -1.68872000       1
H              -5.02418000      4.78933000      2.55357000       1
I               1.86356000      1.90733000      6.98846000      53
H              -0.52658100     -1.30752000     -7.35176000       1
H              -4.20557000     -5.72317000      2.40345000       1
H              -3.82046000     -5.91530000     -2.61709000       1
H               7.18827000      0.33931700     -2.18094000       1
P              -0.68551100     -4.98974000     -5.59401000      15
I               1.21913000     -2.56806000      6.97550000      53
I              -6.76987000     -3.15959000      1.02271000      53
C              -4.72594000     -5.46947000     -2.19900000       6
H              -4.98544000     -4.19259000     -3.84467000       1
H               3.11445000     -5.64719000     -3.99470000       1
H               2.72896000     -5.99144000      3.78037000       1
H               3.37885000     -4.73526000      4.88541000       1
C              -5.28428000      3.51211000      4.19885000       6
I              -7.41437000      1.42288000      1.00979000      53
P              -5.14485000     -0.51049500     -5.60236000      15
N              -5.53322000      4.15241000     -3.31565000       7
I              -2.95503000     -7.07485000      0.59000000      53
H              -0.56530800      7.67436000     -0.95357300       1
H               5.33022000      4.48465000      3.43218000       1
H               4.71300000     -5.72317000      2.40345000       1
H               5.33026000     -4.57321000      3.43218000       1
H              -5.80415000      3.41068000     -3.99470000       1
I               1.50423000     -7.63498000      1.00979000      53
C               3.63432000     -5.54575000      4.19885000       6
H              -6.18965000      3.06642000      3.78037000       1
H              -4.98547000      4.86527000     -3.84467000       1
I              -2.59576000      1.34724000      7.40822000      53
N              -1.07413000     -0.59452200     -7.88078000       7
N              -5.53318000     -4.90545000     -3.31565000       7
P               3.77372000     -0.66205100      7.19406000      15
P              -0.68554400      3.91657000      7.20241000      15
H               0.87073600      7.97874000     -1.83192000       1
H               5.09811000     -5.91530000     -2.61709000       1
H              -8.04780000     -1.07912000     -1.83192000       1
H              -5.32427000     -6.22783000     -1.68872000       1
H              -6.42152000     -4.49693000     -2.96638000       1
H               6.95615000     -1.15444000      4.56604000       1
I               5.67850000     -3.08364000     -5.37571000      53
H              -6.42156000      4.56093000     -2.96638000       1
I               6.32280000      1.49880000     -5.38820000      53
C               8.09373000     -0.10647900     -2.59911000       6
N              -0.01758060      8.38725000     -1.48257000       7
H              -1.96242000     -1.00289000     -8.23037000       1
H               8.35330000     -1.38350000     -0.95357300       1
H               7.83839000     -0.91703100     -3.28565000       1
H              -5.53976000      4.32260000      4.88541000       1
H               0.63883700      0.41540300     -8.57859000       1
H              -0.01105810      8.06549000      3.11281000       1
I              -3.24011000      5.97422000     -5.37571000      53
H              -8.66513000      0.07106270     -0.80347600       1
H               8.05392000      0.57661500      3.28903000       1
I              -3.24007000     -3.23519000      7.42071000      53
C              -5.28425000     -5.54575000      4.19885000       6
H              -5.53972000     -4.73526000      4.88541000       1
H              -1.08021000      8.14083000     -3.28565000       1
P              -5.14485000     -0.66205100      7.19406000      15
P              -0.68550800     -5.14129000      7.20241000      15
I               1.21909000      6.64136000     -5.82091000      53
H               4.23244000     -6.30426000      4.70917000       1
H              -0.22649900     -8.40592000     -3.10935000       1
C              -0.26651600     -0.03031950     -8.99706000       6
H               0.25347900     -8.98680000     -0.80347600       1
H              -5.80411000     -5.64719000     -3.99470000       1
I              -6.76991000      5.89827000      1.02271000      53
N               8.90103000     -0.67061400     -1.48257000       7
N              -8.93611000     -0.67061400     -1.48257000       7
H              -0.86460900     -8.48125000      3.28903000       1
H              -1.73026000     -8.71854000     -2.18094000       1
H              -4.68613000     -6.30426000      4.70917000       1
H               0.25340500      9.12892000     -0.80347600       1
H               9.17201000      0.07106270     -0.80347600       1
H               8.69203000      0.65193800     -3.10935000       1
I               5.96354000     -7.07485000      0.59000000      53
I               1.86360000     -6.99898000     -5.80796000      53
N               7.84444000     -0.74607800      4.91564000       7
H              -8.27973000      0.26384700      4.21783000       1
I               6.60787000      6.56545000      0.57756900      53
H              -1.96246000      7.90342000      4.56604000       1
C              -0.82487800      8.95138000     -2.59911000       6
H              -0.52661500      7.59879000      5.44466000       1
I              -7.05501000      2.05888000     -5.80796000      53
H              -6.18961000     -5.99144000      3.78037000       1
H               7.57338000     -0.00445259      5.59475000       1
P               4.05329000      8.47152000      0.79583000      15
P               8.51263000      3.99227000      0.80418000      15
C               8.65206000     -0.18187500      3.79936000       6
H               8.90755000     -0.99237000      3.11281000       1
I               3.50753000      8.49992000     -2.39334000      53
H              -8.92959000     -0.99237000      3.11281000       1
C              -0.82480500     -9.16434000     -2.59911000       6
H              -0.86464900      0.72817100     -9.50739000       1
H               4.23240000      2.90516000     -8.08725000       1
I               1.21909000      6.48981000      6.97550000      53
H              -1.08017000     -1.06859000      9.51077000       1
H              -9.48384000     -1.38350000     -0.95357300       1
I              -2.59573000     -7.55906000     -5.38820000      53
C              -0.26655000      8.87599000      3.79936000       6
H              -9.14511000      0.65193800     -3.10935000       1
H               3.37881000      4.47416000     -7.91101000       1
H              -0.22653300      0.50038200      9.68707000       1
N              -1.07417000      8.31178000      4.91564000       7
H              -0.01102440     -0.84081400     -9.68360000       1
H               3.37885000     -4.58370000     -7.91101000       1
I               7.96690000      3.96345000      3.99339000      53
I              -0.95166900      4.11501000     -8.80303000      53
H               0.63887700     -8.79401000      4.21783000       1
H              -4.68617000      2.90516000     -8.08725000       1
H              -1.73033000      9.39718000     -2.18094000       1
P              -4.86528000      8.47152000      0.79583000      15
I               4.31944000     -0.48170200     -8.79157000      53
I               6.32280000      1.34724000      7.40822000      53
I               5.67846000      5.97422000     -5.37571000      53
N              -0.01750690     -9.72848000     -1.48257000       7
I               5.67850000     -3.23519000      7.42071000      53
H               3.11442000      3.25912000      8.80172000       1
I              -4.59913000     -0.48170200     -8.79157000      53
P               8.51267000     -5.06559000      0.80418000      15
C              -9.18508000     -0.18187500      3.79936000       6
I              -7.69944000     -2.41650000     -5.82091000      53
H               2.72892000      3.21798000     -9.01604000       1
