200
cutoff_factor=1.20000000 nneightol=1.20000000 Lattice="28.22434000       0.00000000       0.00000000       0.00000000      29.19983000       0.00000000       0.00000000       0.00000000      28.03741000" Properties=species:S:1:pos:R:3:Z:I:1
H              -0.55334500     -0.97801000      0.80422100       1
N              -0.05343020     -1.50351000      1.53963000       7
H               1.81885000     -0.57105200      1.27467000       1
C               1.12012000     -0.76287000      2.09059000       6
H               0.76410500      0.17554700      2.51913000       1
H               0.22930800     -2.41694000      1.12218000       1
H              -0.74800300     -1.72686000      2.28519000       1
I               0.07076190      2.95871000     -0.90378500      53
I               0.85150600     -1.07187000     -2.92089000      53
I              -3.01476000     -1.62286000     -0.77265900      53
H              -2.16311000      2.09689000     -1.83015000       1
H               1.59001000     -1.38086000      2.85932000       1
H              -3.08901000      0.68737800     -1.79970000       1
P               2.47935000      1.63904000     -2.75043000      15
N              -2.93110000      1.58218000     -2.31518000       7
H              -1.59673000      0.67803400     -3.67205000       1
I               4.06922000      0.67893200     -0.16141000      53
I              -3.22247000      1.83101000      2.05818000      53
P              -1.23701000     -3.49495000     -2.79588000      15
I               0.26608300     -4.63861000     -0.12339700      53
C              -2.51538000      1.26689000     -3.71075000       6
I               0.91246000      2.88377000      3.70525000      53
P              -1.19639000      4.28623000      1.81028000      15
H               3.51520000     -2.76222000     -1.79138000       1
H              -3.79380000      2.14036000     -2.31740000       1
I              -2.77572000     -2.31752000      3.70176000      53
P              -4.91388000     -0.88167000      1.73611000      15
H              -2.34377000      2.20406000     -4.24304000       1
H              -3.31221000      0.69525800     -4.18972000       1
H               2.92962000      4.21850000      2.09408000       1
H               4.62097000      2.96054000      0.88076700       1
H               0.26835800      5.25730000     -2.25024000       1
C               4.25182000     -3.06141000     -2.54063000       6
I               4.45161000     -3.59254000      1.44387000      53
H               4.22943000     -2.37788000     -3.39250000       1
H              -2.73078000      0.47656600      5.28394000       1
H               4.24068000      4.35417000      0.05724880       1
I               0.89400900      2.83515000     -5.31694000      53
H               0.78082300     -1.14317000     -5.98900000       1
H              -3.28356000     -4.77983000      2.15138000       1
I               4.39186000     -0.05146580      4.39024000      53
N               4.66988000      3.99945000      0.93658900       7
H               2.95850000     -4.45616000     -3.46108000       1
P               6.07485000     -0.88167000      1.73611000      15
I               1.08677000     -4.58238000      4.31529000      53
C               3.97785000      4.51666000      2.14696000       6
H              -1.67643000     -6.10132000      0.91174400       1
I              -2.76406000     -2.34800000     -5.31346000      53
H               5.25161000     -3.09346000     -2.10148000       1
I               3.97424000      4.51389000     -2.50859000      53
I               0.30450700     -0.63877500      6.51011000      53
N               3.90388000     -4.43215000     -3.02523000       7
I              -3.37640000      5.74583000     -0.12339700      53
N               0.26140600      5.95229000     -3.02523000       7
I               4.75650000      0.57029100     -4.70342000      53
H               4.45734000      4.08861000      3.02971000       1
H              -3.10558000     -6.03027000      0.05724880       1
P               2.44609000     -6.09821000      1.81028000      15
H               0.93894800      5.62923000     -3.73477000       1
H               3.91084000     -5.12714000     -2.25024000       1
H              -5.73712000     -3.09346000     -2.10148000       1
H               0.38617100      0.37283300     -6.86732000       1
H              -5.31891000      4.28312000      0.91174400       1
H              -0.68397800      5.92828000     -3.46108000       1
P               2.43952000      1.73682000      6.22283000      15
C               0.30132700     -0.71510900     -6.87175000       6
N              -3.40833000      0.79962300      5.99348000       7
I              -6.91951000      0.67893200     -0.16141000      53
N              -2.67638000     -6.38499000      0.93658900       7
I               0.80913600      6.79189000      1.44387000      53
H              -3.08278000      2.85389000      5.62621000       1
H              -0.74690700     -1.01328000     -6.92462000       1
I               0.71533500     -5.28324000     -4.62846000      53
H              -6.36776000      2.96054000      0.88076700       1
C              -3.36840000     -5.86777000      2.14696000       6
H              -4.35371000      0.77561300      5.55763000       1
H               5.66982000      4.28312000      0.91174400       1
I              -3.37202000     -5.87055000     -2.50859000      53
H               4.06269000      5.60461000      2.15138000       1
P              -1.19038000     -3.51363000      6.26827000      15
I              -2.92714000      5.10120000     -4.62846000      53
C              -3.06040000      2.17036000      6.47808000       6
H               4.97524000     -2.94861000      4.77566000       1
H              -2.06060000      2.13831000      6.91722000       1
N              -6.31886000      3.99945000      0.93658900       7
H              -2.88891000     -6.29583000      3.02971000       1
H              -3.40137000      0.10463500      6.76846000       1
H               4.58143000     -4.75521000     -3.73477000       1
I              -6.53712000     -3.59254000      1.44387000      53
H               0.36431100      5.92703000      4.82899000       1
I              -2.55571000      5.80206000      4.31529000      53
H               4.00679000     -4.45741000      4.82899000       1
H               1.60914000      7.29097000     -2.10148000       1
C               0.60933700      7.32303000     -2.54063000       6
C              -6.73692000     -3.06141000     -2.54063000       6
I              -6.23223000      0.57029100     -4.70342000      53
H              -0.12728000      7.62222000     -1.79138000       1
H               7.19493000      2.14036000     -2.31740000       1
H              -4.41664000     -6.16594000      2.09408000       1
I              -6.59688000     -0.05146580      4.39024000      53
H              -6.75930000     -2.37788000     -3.39250000       1
H              -2.72528000     -7.42389000      0.88076700       1
H              -6.74806000      4.35417000      0.05724880       1
H               2.92173000      3.42580000     -6.73352000       1
H               7.89973000      0.68737800     -1.79970000       1
C               4.80362000     -3.88578000      5.30795000       6
H               3.52520000     -3.01231000      6.70130000       1
H              -7.47353000     -2.76222000     -1.79138000       1
I               7.97397000     -1.62286000     -0.77265900      53
H              -6.01350000     -2.94861000      4.77566000       1
N               0.99335400     -1.23232000     -8.08212000       7
H               2.07979000      5.90981000      5.34665000       1
I               7.76627000      1.83101000      2.05818000      53
I              -2.86739000      1.56012000     -7.57484000      53
H              -6.53139000      4.08861000      3.02971000       1
I               3.71324000     -7.42573000     -0.90378500      53
H               1.99330000     -0.94865000     -8.10696000       1
C               1.16114000      6.49866000      5.30795000       6
H               0.94445100     -2.27123000     -8.13794000       1
H              -3.79701000      2.46956000      7.22732000       1
N               8.05763000      1.58218000     -2.31518000       7
P              -1.24415000      4.27100000     -7.28259000      15
H              -0.15132100     -8.24408000     -2.31740000       1
C              -7.01088000      4.51666000      2.14696000       6
H               1.47937000     -8.28755000     -1.83015000       1
I               4.52803000      4.15990000      6.09781000      53
H               6.63502000      0.77561300      5.55763000       1
I              -7.01449000      4.51389000     -2.50859000      53
H               0.58695200      8.00656000     -3.39250000       1
H              -2.91242000     -5.05623000     -6.49957000       1
H              -5.26646000     -4.47463000      5.34665000       1
H              -3.41317000      7.96750000      1.12218000       1
P              -4.87291000     -0.94554300     -7.20842000      15
I               4.08974000     -3.40077000     -6.96053000      53
N               4.38790000     -3.57049000      6.70352000       7
H               7.67652000      0.69525800     -4.18972000       1
I               0.42001100     -8.55343000      2.05818000      53
H              -6.40731000     -4.75521000     -3.73477000       1
N              -7.08485000     -4.43215000     -3.02523000       7
P              -4.87948000      6.88949000     -2.79588000      15
H               5.25974000      3.77180000     -6.15939000       1
H               1.33276000      7.43583000      4.77566000       1
H               5.72227000     -4.47463000      5.34665000       1
H               0.56415400     -0.87760400     -8.96146000       1
H              -7.07790000     -5.12714000     -2.25024000       1
I               0.66175900      3.60891000      8.24605000      53
C              -6.18512000     -3.88578000      5.30795000       6
N               3.61630000      3.64915000     -7.47908000       7
P              -8.50938000      1.63904000     -2.75043000      15
H               0.57094400     -0.79849700      9.07595000       1
N               0.71137600     -8.80226000     -2.31518000       7
I              -3.59897000     -2.19395000      8.11492000      53
I              -2.81823000     -6.22453000      6.09781000      53
H              -6.92604000      5.60461000      2.15138000       1
H              -5.72899000      3.77180000     -6.15939000       1
H               3.89904000      2.73572000     -7.89652000       1
H               6.57209000     -6.16594000      2.09408000       1
H               8.82562000      2.09689000     -1.83015000       1
H              -2.08651000     -6.61264000     -6.15939000       1
H              -9.16988000     -0.57105200      1.27467000       1
I               8.21301000     -2.31752000      3.70176000      53
H               1.29871000     -8.18038000     -4.24304000       1
H               7.70517000     -4.77983000      2.15138000       1
H              -8.05912000      4.21850000      2.09408000       1
C               8.47335000      1.26689000     -3.71075000       6
H               0.58751500      5.91915000      7.21901000       1
H               5.15589000     -3.05578000      7.18856000       1
H               0.55969800     -7.53055000      5.62621000       1
H               4.22999000     -4.46529000      7.21901000       1
C               4.78985000      4.38980000     -6.92812000       6
P               6.11583000     -0.94554300     -7.20842000      15
H               4.43384000      5.32821000     -6.49957000       1
C              -2.55640000     -5.99464000     -6.92812000       6
I               4.55494000     -7.50067000      3.70525000      53
I               7.61234000      5.74583000     -0.12339700      53
N               0.74542000      6.81395000      6.70352000       7
H              -6.98194000     -4.45741000      4.82899000       1
P               6.10925000      6.88949000     -2.79588000      15
H              -2.05247000      9.00357000      2.85932000       1
N               7.58041000      0.79962300      5.99348000       7
H               3.11639000      4.17466000     -8.21448000       1
N              -3.69591000      8.88092000      1.53963000       7
I               3.94261000      0.59316100      8.89531000      53
H              -5.83284000     -3.05578000      7.18856000       1
I               4.33149000      8.76158000     -0.77265900      53
P               2.39833000     -6.11344000     -7.28259000      15
I              -6.46070000      4.15990000      6.09781000      53
H              -8.03023000     -4.45616000     -3.46108000       1
H               8.25795000      0.47656600      5.28394000       1
H              -1.85767000     -5.80282000     -7.74404000       1
C               7.62033000     -5.86777000      2.14696000       6
I               0.44726500      6.98367000     -6.96053000      53
H               0.55347100     -9.69706000     -1.79970000       1
H               8.64497000      2.20406000     -4.24304000       1
C               1.12709000     -9.11755000     -3.71075000       6
H              -9.39872000     -1.38086000      2.85932000       1
H               7.88315000     -6.03027000      0.05724880       1
I               0.39948700     -4.47373000      8.85730000      53
I               7.61672000     -5.87055000     -2.50859000      53
P               2.43237000      9.50277000      1.73611000      15
