200
cutoff_factor=1.20000000 nneightol=1.20000000 Lattice="28.64061000       0.00000000       0.00000000       0.00000000      28.44422000       0.00000000       0.00000000       0.00000000      29.47001000" Properties=species:S:1:pos:R:3:Z:I:1
P              -0.53966100      1.56177000     -0.63742200      15
I               2.05696000      0.10804000      0.50940500      53
I              -2.38221000     -0.59750000      0.80290000      53
H              -1.32551000     -2.58734000     -0.46151800       1
I              -0.53748300     -0.33163200     -3.22643000      53
H              -0.86070800      0.17635700      3.22222000       1
H               2.93218000      0.09993710     -2.32185000       1
N              -1.29599000     -3.55634000     -0.84701500       7
H               0.77098600     -3.83879000     -0.52589100       1
C              -0.15206700     -0.05028250      4.02068000       6
I              -0.68973200      3.44651000      1.99601000      53
H               0.24271100     -1.06020000      3.90726000       1
H               0.66061700      0.67971900      4.02713000       1
H              -1.24780000     -3.50604000     -1.88374000       1
C              -0.16555200     -4.33906000     -0.26946700       6
H              -0.29534700     -4.37949000      0.81372800       1
I               1.33343000      3.64555000     -2.28410000      53
H              -2.21777000     -3.97521000     -0.61445300       1
H               2.71728000      3.28343000      1.73193000       1
C               3.38486000      0.35042000     -3.28277000       6
I              -3.08802000      3.10921000     -1.82100000      53
H               2.61300000      0.48720200     -4.04363000       1
P               3.94035000     -2.05058000      1.95030000      15
H               4.02353000      2.63066000      0.68936000       1
I               1.40820000     -3.54541000      3.11741000      53
H              -3.91453000     -0.95045700     -3.01762000       1
H              -3.30937000      3.21265000      2.42499000       1
C               3.76810000      3.37432000      1.44754000       6
H               3.99653000      1.25001000     -3.19623000       1
H              -0.19229300     -5.34521000     -0.69237500       1
N              -0.87239800      0.03022020      5.32747000       7
H              -0.20013000      3.43940000     -4.33178000       1
H               3.69792000     -1.64784000     -3.83222000       1
H              -4.90559000      2.63066000      0.68936000       1
H              -1.64601000     -0.64990800      5.38235000       1
N               4.26344000     -0.78156700     -3.70043000       7
H              -1.27700000      0.98017200      5.47516000       1
I               4.04415000     -3.98992000     -0.63430400      53
H              -0.23875500      5.68307000     -0.69237500       1
P              -4.98877000     -2.05058000      1.95030000      15
H               4.43465000      2.17050000      3.03722000       1
H              -4.49447000      2.17050000      3.03722000       1
H               5.01459000     -0.95045700     -3.01762000       1
N              -4.32085000      3.12348000      2.65607000       7
N              -4.66568000     -0.78156700     -3.70043000       7
H              -4.93259000      1.25001000     -3.19623000       1
H               3.98054000      4.38137000      1.08214000       1
H              -1.62164000      2.92203000     -5.07824000       1
I               4.09265000     -0.05475710      4.51355000      53
H              -0.22450100     -0.13253500      6.12881000       1
N               4.60827000      3.12348000      2.65607000       7
P              -0.37244400     -2.07830000     -5.88414000      15
H              -4.22110000     -0.58499900     -4.62622000       1
N              -0.84802700      3.60216000     -5.13312000       7
C              -5.16102000      3.37432000      1.44754000       6
I              -4.88497000     -3.98992000     -0.63430400      53
I              -3.12890000     -4.20278000      3.57394000      53
I               2.29233000     -3.58695000     -4.81975000      53
H              -5.99694000      0.09993710     -2.32185000       1
I              -2.22821000     -4.25305000     -4.28848000      53
C              -5.54426000      0.35042000     -3.28277000       6
I              -4.83647000     -0.05475710      4.51355000      53
I               6.54691000     -0.59750000      0.80290000      53
H               4.70802000     -0.58499900     -4.62622000       1
H              -5.23120000     -1.64784000     -3.83222000       1
H              -4.94858000      4.38137000      1.08214000       1
C              -0.21201400      6.68922000     -0.26946700       6
H              -0.34180800      6.64880000      0.81372800       1
H               4.38339000      3.80881000      3.39882000       1
H              -4.54573000      3.80881000      3.39882000       1
I               5.84110000      3.10921000     -1.82100000      53
H              -1.25263000      4.55211000     -4.98542000       1
I              -6.87216000      0.10804000      0.50940500      53
H               5.61975000      3.21265000      2.42499000       1
H               0.26708200      2.51174000     -6.55332000       1
P              -0.44327600      5.37805000      4.57644000      15
I               2.22150000      3.86940000      5.64083000      53
H              -6.21184000      3.28343000      1.73193000       1
H               0.72452500      7.18950000     -0.52589100       1
P               3.92166000      5.21313000     -3.23251000      15
P              -0.39681400     -5.65023000      4.57644000      15
I              -2.29904000      3.20330000      6.17211000      53
C              -0.12769600      3.52165000     -6.43990000       6
H              -2.26423000      7.05308000     -0.61445300       1
I               1.43257000      0.02652530     -7.34317000      53
H              -6.31612000      0.48720200     -4.04363000       1
H               2.58863000     -3.08473000      6.41695000       1
I              -3.10453000     -0.63084200     -6.88664000      53
N              -1.34245000      7.47195000     -0.84701500       7
H               0.68498800      4.25166000     -6.43345000       1
P               3.96812000     -5.81515000     -3.23251000      15
H               6.71135000     -3.97521000     -0.61445300       1
H               4.02700000     -6.64691000      1.08214000       1
I               1.37989000     -7.38273000     -2.28410000      53
H              -1.29426000      7.52224000     -1.88374000       1
I              -0.64327100     -7.58178000      1.99601000      53
P              -5.00746000      5.21313000     -3.23251000      15
I               5.80022000     -4.20278000      3.57394000      53
I               4.11702000      3.51718000     -5.94703000      53
H               7.60361000     -2.58734000     -0.46151800       1
I               3.99769000      7.03836000     -0.63430400      53
H              -0.83633700      3.74829000     -7.23836000       1
I               1.36174000      7.48287000      3.11741000      53
I              -0.56185400     -3.90357000      7.23416000      53
H              -1.20617000     -6.47617000     -4.98542000       1
I               1.30906000      0.07361490      8.17649000      53
P              -4.96100000     -5.81515000     -3.23251000      15
H              -4.24547000     -4.15694000      5.83437000       1
H              -4.90212000     -6.64691000      1.08214000       1
I              -3.17536000      6.82550000      3.57394000      53
I              -2.27467000      6.77523000     -4.28848000      53
P               3.89729000      1.64120000      7.22808000      15
H               2.76374000     -7.74485000      1.73193000       1
I              -4.81210000      3.51718000     -5.94703000      53
N               7.63313000     -3.55634000     -0.84701500       7
C               3.36049000     -3.22152000      7.17781000       6
P               8.38946000      1.56177000     -0.63742200      15
H               4.68365000     -4.15694000      5.83437000       1
H              -1.37197000      8.44094000     -0.46151800       1
H               3.97216000     -2.32193000      7.26435000       1
I              -4.93144000      7.03836000     -0.63430400      53
H               7.68132000     -3.50604000     -1.88374000       1
C               3.81456000     -7.65396000      1.44754000       6
I              -3.04156000     -7.91907000     -1.82100000      53
H               8.06841000      0.17635700      3.22222000       1
I              -7.59569000      3.64555000     -2.28410000      53
H              -0.15366800     -7.58888000     -4.33178000       1
H              -3.26291000     -7.81563000      2.42499000       1
I              -7.52092000     -3.54541000      3.11741000      53
I              -6.63679000     -3.58695000     -4.81975000      53
P              -5.03183000      1.64120000      7.22808000      15
I               8.39164000     -0.33163200     -3.22643000      53
I               6.70091000     -4.25305000     -4.28848000      53
H              -8.15813000     -3.83879000     -0.52589100       1
I               5.82459000     -0.63084200     -6.88664000      53
N              -0.80156600     -7.42613000     -5.13312000       7
H               7.28311000     -0.64990800      5.38235000       1
N               4.23907000     -4.35350000      6.76016000       7
H              -4.95696000     -2.32193000      7.26435000       1
H               4.45423000     -3.64754000     -7.06176000       1
H              -4.47489000     -3.64754000     -7.06176000       1
H               4.42986000     -7.21948000      3.39882000       1
I               2.24587000      7.44133000     -4.81975000      53
I               8.23939000      3.44651000      1.99601000      53
H              -4.49926000     -7.21948000      3.39882000       1
I              -3.11239000     -0.46272700      8.63958000      53
H               3.67355000     -5.21978000      6.62836000       1
H              -8.26850000      0.67971900      4.02713000       1
N              -4.69005000     -4.35350000      6.76016000       7
H               2.90781000     -3.47200000      8.13874000       1
C              -5.11456000     -7.65396000      1.44754000       6
H               4.06999000     -8.39762000      0.68936000       1
H               7.30748000      2.92203000     -5.07824000       1
N              -4.27438000     -7.90480000      2.65607000       7
H               0.73144900     -6.77663000     -6.43345000       1
I              -0.61890000     -4.00984000     -8.46457000      53
I               2.26796000     -7.15889000      5.64083000      53
H               7.65212000      0.98017200      5.47516000       1
P              -0.49319900     -9.46651000     -0.63742200      15
P               3.96472000      1.52136000     -8.51028000      15
H               3.62709000      5.80850000      6.62836000       1
H              -6.34049000     -3.08473000      6.41695000       1
H              -1.31863000      3.95031000      8.57684000       1
N               4.65474000     -7.90480000      2.65607000       7
H              -3.93890000     -4.52239000      7.44296000       1
I              -6.70762000      3.86940000      5.64083000      53
H              -8.68641000     -1.06020000      3.90726000       1
I               6.63008000      3.20330000      6.17211000      53
I               5.75376000      6.82550000      3.57394000      53
P              -9.46878000      1.56177000     -0.63742200      15
C              -5.56863000     -3.22152000      7.17781000       6
H              -3.23854000     -4.24370000     -8.03559000       1
C               8.77705000     -0.05028250      4.02068000       6
N               8.05672000      0.03022020      5.32747000       7
H              -0.27097600     -0.80755100     -9.64685000       1
H              -1.57518000     -8.10626000     -5.07824000       1
H               8.63377000     -4.37949000      0.81372800       1
H               6.66489000      7.05308000     -0.61445300       1
H              -4.85913000     -8.39762000      0.68936000       1
C               8.76357000     -4.33906000     -0.26946700       6
N              -4.25001000     -4.33287000     -7.80451000       7
C              -0.08123460     -7.50663000     -6.43990000       6
C              -9.08119000     -0.05028250      4.02068000       6
H              -5.25557000     -5.21978000      6.62836000       1
H               5.66621000     -7.81563000      2.42499000       1
P              -4.96440000      1.52136000     -8.51028000      15
P               3.89389000      8.97771000      1.95030000      15
H              -4.29193000      6.87135000      5.83437000       1
H              -0.26312600      2.11114000      9.76821000       1
I              -9.46660000     -0.33163200     -3.22643000      53
H               9.17183000     -1.06020000      3.90726000       1
I               5.88756000     -7.91907000     -1.82100000      53
H               4.99022000     -4.52239000      7.44296000       1
P              -0.56403200     -2.01016000      9.82316000      15
H              -6.16538000     -7.74485000      1.73193000       1
H               2.78811000     -4.17291000     -8.72866000       1
N               4.67911000     -4.33287000     -7.80451000       7
C              -9.09467000     -4.33906000     -0.26946700       6
H              -4.42364000     -5.28584000     -7.42337000       1
H               4.63719000      6.87135000      5.83437000       1
