200
cutoff_factor=1.20000000 nneightol=1.20000000 Lattice="27.90099000       0.00000000       0.00000000       0.00000000      28.25392000       0.00000000       0.00000000       0.00000000      29.07997000" Properties=species:S:1:pos:R:3:Z:I:1
P              -1.66121000     -0.66920200      0.00578236      15
I               0.13613800      1.47138000     -1.50939000      53
I               0.93891900     -2.21930000      1.00895000      53
H               1.64279000      0.41016200      2.20864000       1
I              -1.60719000      1.14613000      2.67025000      53
C               2.30958000      0.93196000      2.89744000       6
H              -0.92524500      3.66504000     -1.00060000       1
H               3.05882000     -2.25407000     -1.08099000       1
H               2.58971000      2.57114000      1.59310000       1
I              -1.97013000     -2.53947000     -2.59451000      53
H               1.50417000     -2.62237000     -2.89097000       1
H               3.72725000      1.38043000      1.39072000       1
N               3.15566000      1.87418000      2.10924000       7
H              -1.52481000      0.82788600     -3.89068000       1
H               1.73142000      1.51191000      3.61945000       1
H               2.96408000      0.22353100      3.41005000       1
I              -4.33097000      0.87804600     -0.99178600      53
H               2.81031000     -1.48901000     -3.37267000       1
C               2.57110000     -2.51983000     -3.10210000       6
I              -3.55745000     -2.76414000      1.58680000      53
N               3.33418000     -2.87391000     -1.86664000       7
I               4.61953000      0.87804600     -0.99178600      53
P               2.75089000      2.91827000     -2.67640000      15
H              -0.90592200     -1.77074000      4.43704000       1
H              -2.63122000      4.04557000      0.69083900       1
N              -1.36226000      4.60851000     -0.89763400       7
H              -1.04577000      4.72812000      1.18040000       1
H              -2.17495000     -2.57833000      3.68944000       1
C              -1.88204000      4.81335000      0.48453100       6
H               3.13700000     -3.84946000     -1.57147000       1
H               3.78742000      2.42341000      2.73041000       1
C              -2.24780000      0.86582300     -4.70734000       6
H              -2.12145000      4.64934000     -1.61347000       1
N              -1.50959000     -2.60246000      4.49500000       7
H              -0.64790500      5.30582000     -1.15902000       1
H              -2.87045000     -0.03181090     -4.70719000       1
H               4.35845000     -2.77312000     -2.02511000       1
I               2.71465000      4.84065000     -0.00341960      53
H              -5.22324000      1.38043000      1.39072000       1
H              -0.92946600     -3.46225000      4.37275000       1
H              -2.32184000     -5.16480000      0.53945200       1
H              -2.86936000      1.75960000     -4.62958000       1
P               2.75975000     -4.26423000      2.66036000      15
H              -4.59205000     -2.77312000     -2.02511000       1
H               2.86894000     -3.20389000     -3.89989000       1
H              -0.64231300     -5.66648000     -1.15902000       1
I               2.75422000      1.11128000     -5.25968000      53
H              -0.92041200      0.06157420     -6.12052000       1
N              -1.50053000      0.92136000     -5.99828000       7
I               5.39304000     -2.76414000      1.58680000      53
H              -2.32743000      5.80750000      0.53945200       1
P              -1.73516000      3.04871000      5.24664000      15
H              -5.16307000      2.42341000      2.73041000       1
H              -0.89686800      1.75309000     -6.05624000       1
I               2.74516000     -2.41255000      5.23359000      53
H              -5.89167000     -2.25407000     -1.08099000       1
H              -1.04018000     -6.24418000      1.18040000       1
N              -5.79483000      1.87418000      2.10924000       7
C              -1.87645000     -6.15895000      0.48453100       6
I               0.13055400      5.25478000      3.82073000      53
I               0.83751000      5.13111000     -3.99929000      53
N              -1.35666000     -6.36379000     -0.89763400       7
N              -5.61631000     -2.87391000     -1.86664000       7
I               2.72025000     -6.13165000     -0.00341960      53
I               0.82845600      1.60729000      6.49398000      53
C              -2.25686000     -2.65800000      5.78594000       6
H              -2.87842000     -1.76423000      5.86369000       1
I              -3.59433000      4.47262000     -3.65005000      53
H              -2.11586000     -6.32296000     -1.61347000       1
I               0.13614600     -5.71752000      3.82073000      53
H              -5.98641000      0.22353100      3.41005000       1
I               0.14519900     -2.19370000     -6.67254000      53
H              -6.36078000      2.57114000      1.59310000       1
P              -1.72051000     -4.39977000     -5.24664000      15
I               0.84310200     -5.84119000     -3.99929000      53
H              -5.81350000     -3.84946000     -1.57147000       1
H              -6.14019000     -1.48901000     -3.37267000       1
H              -2.16590000      0.94549000     -6.80383000       1
H              -1.53386000     -2.69594000      6.60259000       1
C              -6.64091000      0.93196000      2.89744000       6
P               7.28928000     -0.66920200      0.00578236      15
P              -6.19961000      2.91827000     -2.67640000      15
H              -2.87950000     -3.55564000      5.78609000       1
I              -4.31925000      4.49053000      4.01704000      53
H              -0.91965300     -7.30726000     -1.00060000       1
H              -2.62562000     -6.92673000      0.69083900       1
C              -6.37940000     -2.51983000     -3.10210000       6
H               6.31928000      4.04557000      0.69083900       1
I               4.63125000      4.49053000      4.01704000      53
H              -7.30771000      0.41016200      2.20864000       1
H               6.08005000     -0.03181090     -4.70719000       1
P               2.75415000      6.70807000      2.66036000      15
I              -3.60339000      0.94879600      6.84322000      53
H               6.08113000      1.75960000     -4.62958000       1
I               6.98036000     -2.53947000     -2.59451000      53
I               5.35616000      4.47262000     -3.65005000      53
I              -6.23584000      4.84065000     -0.00341960      53
I               7.34331000      1.14613000      2.67025000      53
H              -6.08156000     -3.20389000     -3.89989000       1
H               3.13141000      7.12284000     -1.57147000       1
P              -6.19075000     -4.26423000      2.66036000      15
H               6.77554000     -2.57833000      3.68944000       1
I              -6.19628000      1.11128000     -5.25968000      53
H              -7.21908000      1.51191000      3.61945000       1
C               6.70269000      0.86582300     -4.70734000       6
I              -3.58874000     -6.49968000     -3.65005000      53
P               2.74183000     -0.60555300      7.81687000      15
I              -4.30460000     -2.95794000     -6.47623000      53
P               2.76880000     -0.74040800     -7.83291000      15
H               2.85429000      4.24458000      6.59339000       1
I              -8.01158000     -2.21930000      1.00895000      53
H              -7.44632000     -2.62237000     -2.89097000       1
H               6.82904000      4.64934000     -1.61347000       1
H               6.62865000     -5.16480000      0.53945200       1
H               7.42569000      0.82788600     -3.89068000       1
I              -6.20533000     -2.41255000      5.23359000      53
I               4.64589000     -2.95794000     -6.47623000      53
H               2.97313000      3.74736000     -7.08322000       1
C               7.06846000      4.81335000      0.48453100       6
P              -1.72610000      6.57253000     -5.24664000      15
H               6.07208000     -1.76423000      5.86369000       1
H               1.74047000      5.03574000     -6.87382000       1
I               5.34711000      0.94879600      6.84322000      53
H              -0.93505800      7.51005000      4.37275000       1
I              -6.23025000     -6.13165000     -0.00341960      53
I              -4.31366000     -6.48177000      4.01704000      53
H               6.62306000      5.80750000      0.53945200       1
I               0.93332700      8.75300000      1.00895000      53
H               8.02525000      3.66504000     -1.00060000       1
N               7.58824000      4.60851000     -0.89763400       7
P               2.75648000     -8.05403000     -2.67640000      15
I               4.63684000     -6.48177000      4.01704000      53
H               2.59530000     -8.40116000      1.59310000       1
N               3.32859000      8.09839000     -1.86664000       7
H               1.49858000      8.34993000     -2.89097000       1
I              -1.97572000      8.43283000     -2.59451000      53
I              -8.81436000      1.47138000     -1.50939000      53
N               7.44091000     -2.60246000      4.49500000       7
I              -3.56304000      8.20816000      1.58680000      53
C               2.31864000      4.45578000     -7.59583000       6
H               6.07100000     -3.55564000      5.78609000       1
H               1.48953000      4.82610000      7.60231000       1
H               2.80126000     -5.01284000      7.12061000       1
H               2.86335000      7.76841000     -3.89989000       1
I               5.36176000     -6.49968000     -3.65005000      53
H              -2.13051000      1.12552000      8.87980000       1
I               0.12708500     -2.05244000      8.98388000      53
C               6.69364000     -2.65800000      5.78594000       6
C               2.55645000      4.92865000      7.39117000       6
H               1.74606000     -5.93656000     -6.87382000       1
I              -1.59813000      4.66995000     -7.82303000      53
H               7.90473000      4.72812000      1.18040000       1
H               3.05323000      8.71823000     -1.08099000       1
H               1.65184000      3.93399000     -8.28463000       1
I               9.08663000      1.47138000     -1.50939000      53
H              -5.81909000      7.12284000     -1.57147000       1
H               8.04457000     -1.77074000      4.43704000       1
C               2.56551000      8.45247000     -3.10210000       6
C               7.07405000     -6.15895000      0.48453100       6
H               6.32487000     -6.92673000      0.69083900       1
H              -2.18055000      8.39397000      3.68944000       1
P               7.21534000      3.04871000      5.24664000      15
H               6.83463000     -6.32296000     -1.61347000       1
H               4.35285000      8.19918000     -2.02511000       1
I              -1.98478000      4.90901000      7.89877000      53
P              -6.19634000      6.70807000      2.66036000      15
H              -0.65695900      1.78200000      9.33425000       1
H              -0.93429900      0.14121400      9.49267000       1
N               7.44996000      0.92136000     -5.99828000       7
H              -4.59764000      8.19918000     -2.02511000       1
I              -3.54840000      0.75968800     -8.90647000      53
I               0.94797300      1.30453000     -9.48433000      53
N              -1.51518000      8.36984000      4.49500000       7
I               0.14173000     -9.50092000     -1.50939000      53
H               6.78460000      0.94549000     -6.80383000       1
P              -1.72957000     -7.92359000      5.24664000      15
H               2.79566000      5.95946000      7.12061000       1
H               3.79302000     -8.54889000      2.73041000       1
N              -1.37131000      1.08469000      9.59564000       7
H              -1.03112000     -2.72036000     -9.31288000       1
H               8.02103000     -3.46225000      4.37275000       1
H              -2.88509000      7.41666000      5.78609000       1
H               2.85989000     -6.72772000      6.59339000       1
N               3.16126000     -9.09812000      2.10924000       7
C               2.56204000     -6.04365000      7.39117000       6
H               1.49512000     -6.14620000      7.60231000       1
H               8.30259000      5.30582000     -1.15902000       1
H              -6.09620000      4.24458000      6.59339000       1
I               5.38745000      8.20816000      1.58680000      53
N               7.59383000     -6.36379000     -0.89763400       7
P               7.22998000     -4.39977000     -5.24664000      15
H              -5.97736000      3.74736000     -7.08322000       1
H               3.80207000     -5.02506000     -7.76286000       1
P              -6.20866000     -0.60555300      7.81687000      15
P              -6.18170000     -0.74040800     -7.83291000      15
N              -5.62191000      8.09839000     -1.86664000       7
H               8.03008000      0.06157420     -6.12052000       1
H               3.12235000      3.59902000      8.92180000       1
H               8.30818000     -5.66648000     -1.15902000       1
H               7.91032000     -6.24418000      1.18040000       1
