200
cutoff_factor=1.20000000 nneightol=1.20000000 Lattice="28.40502000       0.00000000       0.00000000       0.00000000      28.13451000       0.00000000       0.00000000       0.00000000      29.34761000" Properties=species:S:1:pos:R:3:Z:I:1
H              -0.43379200     -0.10065700      1.73011000       1
H              -0.11399500     -1.62866000      0.84488700       1
C              -0.63156800     -1.17437000      1.69226000       6
I               1.73436000      1.22348000     -1.10624000      53
H              -0.35760800     -0.04910480     -2.61191000       1
H              -1.70566000     -1.36292000      1.63030000       1
I              -2.68179000      1.08283000     -0.30487000      53
H              -0.20223700     -1.71275000     -2.67199000       1
N              -0.62454100     -0.89109700     -3.15279000       7
N              -0.11891000     -1.79038000      2.94312000       7
H               0.90872800     -1.62992000      3.01128000       1
P              -0.55108000      3.43984000     -0.80098900      15
H              -1.66322000     -0.97242900     -3.16945000       1
I               1.50303000     -3.15939000     -1.33730000      53
H              -0.58967500     -1.38248000      3.77227000       1
H              -0.25779700     -2.82169000      2.92507000       1
P               3.89849000     -1.11203000     -0.83759600      15
I               3.38030000     -1.18975000      2.41399000      53
I               0.02955410      3.65051000      2.38974000      53
I              -2.85019000     -3.48257000     -0.50930200      53
C              -0.10777100     -0.77490100     -4.54283000       6
H               0.98118100     -0.69816200     -4.50253000       1
H              -3.88809000      2.10416000      1.65676000       1
H               3.67708000      1.67529000      2.60108000       1
H              -0.53797400      0.11956000     -4.99808000       1
H               3.22975000      3.75425000      1.39932000       1
I              -1.01369000      3.07082000     -4.01789000      53
P              -4.97346000     -1.11203000     -0.83759600      15
H              -0.40989300     -1.66632000     -5.09655000       1
H               3.48681000      3.07575000     -2.84586000       1
I              -2.21399000      0.62973100      4.97102000      53
H              -3.83282000      2.33606000      3.31496000       1
N               4.41904000      2.38902000      2.48721000       7
N              -4.45291000      2.38902000      2.48721000       7
H               4.98386000      2.10416000      1.65676000       1
P              -0.46382800     -5.60164000     -0.80098900      15
C               3.85374000      3.75906000      2.29598000       6
I              -4.16721000     -1.06949000     -3.97825000      53
I               0.11680600     -5.39096000      2.38974000      53
H              -5.19487000      1.67529000      2.60108000       1
H               3.25758000      4.01296000      3.17544000       1
I              -5.49165000     -1.18975000      2.41399000      53
I               1.41577000      5.88209000     -1.33730000      53
I               4.70474000     -1.06949000     -3.97825000      53
I               6.19016000      1.08283000     -0.30487000      53
I              -2.93745000      5.55891000     -0.50930200      53
H               2.69479000      4.28209000     -3.91332000       1
H               3.31700000     -5.28723000      1.39932000       1
H              -3.55096000      2.96383000     -4.43479000       1
C               3.64947000      3.88497000     -3.56076000       6
I               2.22471000      1.30769000      5.87767000      53
P              -0.33009200      3.23668000      5.57137000      15
H               5.03913000      2.33606000      3.31496000       1
H              -4.18992000      4.46193000      2.18161000       1
H              -4.10267000     -4.57955000      2.18161000       1
C              -5.01820000      3.75906000      2.29598000       6
H               2.78204000     -4.75939000     -3.91332000       1
H               3.34484000     -5.02852000      3.17544000       1
H              -5.38514000      3.07575000     -2.84586000       1
H               4.68202000      4.46193000      2.18161000       1
H              -0.34504900      6.21979000      2.92507000       1
H               4.33673000     -4.36331000     -3.10934000       1
H              -5.64220000      3.75425000      1.39932000       1
H               4.76928000     -4.57955000      2.18161000       1
I               6.02175000     -3.48257000     -0.50930200      53
C               3.94100000     -5.28241000      2.29598000       6
H               3.84113000      2.60089000     -5.21560000       1
H              -4.53522000     -4.36331000     -3.10934000       1
H               4.24947000      4.67817000     -3.10934000       1
I               1.64651000     -3.27194000      6.02791000      53
P               4.12511000     -1.30081000      5.59679000      15
I              -2.87699000     -3.88766000      5.29545000      53
I              -0.92644200     -5.97066000     -4.01789000      53
N               4.39398000      3.33876000     -4.73015000       7
H              -4.62247000      4.67817000     -3.10934000       1
C               3.73672000     -5.15651000     -3.56076000       6
N              -4.47797000      3.33876000     -4.73015000       7
I              -7.13759000      1.22348000     -1.10624000      53
I               2.25829000      1.40928000     -6.84409000      53
C              -5.22248000      3.88497000     -3.56076000       6
P              -4.74684000     -1.30081000      5.59679000      15
H              -0.20124700      7.41282000      0.84488700       1
H               7.16629000     -1.36292000      1.63030000       1
H               3.57406000     -5.96573000     -2.84586000       1
H               5.32099000      2.96383000     -4.43479000       1
C              -4.93095000     -5.28241000      2.29598000       6
I               1.68010000     -3.17034000     -6.69384000      53
H              -5.61436000      4.01296000      3.17544000       1
H              -5.03082000      2.60089000     -5.21560000       1
H              -0.57155900      0.01796460      7.72368000       1
H              -5.55495000     -5.28723000      1.39932000       1
H              -0.28948900      7.32873000     -2.67199000       1
N              -0.20616200      7.25110000      2.94312000       7
H              -0.44347900     -1.76791000      7.62521000       1
P              -0.29650700      3.33828000     -7.15039000      15
H               7.20873000     -0.97242900     -3.16945000       1
I              -2.96424000      5.15382000      5.29545000      53
H              -4.27750000      4.07976000     -5.43031000       1
H               0.82147600      7.41156000      3.01128000       1
P              -0.24284000     -5.80480000      5.57137000      15
H              -1.79291000      7.67855000      1.63030000       1
C              -0.71882000      7.86711000      1.69226000       6
H              -3.80084000     -6.93732000      1.65676000       1
I              -2.18041000      0.73132600     -7.75074000      53
C              -5.13523000     -5.15651000     -3.56076000       6
I               1.82161000     -7.81800000     -1.10624000      53
H              -5.52711000     -5.02852000      3.17544000       1
I              -7.36892000     -3.15939000     -1.33730000      53
I               5.93450000      5.55891000     -0.50930200      53
H               4.59445000      4.07976000     -5.43031000       1
C              -0.14135600     -0.87649600      8.17893000       6
H              -3.46371000     -6.07765000     -4.43479000       1
H               0.94759600     -0.79975700      8.21923000       1
I               6.65796000      0.62973100      4.97102000      53
P               4.15869000     -1.19922000     -7.12497000      15
N              -4.36565000     -6.65246000      2.48721000       7
H              -3.74557000     -6.70541000      3.31496000       1
I              -2.59454000     -7.95865000     -0.30487000      53
N               4.50629000     -6.65246000      2.48721000       7
H              -4.19025000     -4.96172000     -5.43031000       1
H              -5.29789000     -5.96573000     -2.84586000       1
H              -6.17716000      4.28209000     -3.91332000       1
I               1.55926000      5.76954000      6.02791000      53
C               8.24038000     -1.17437000      1.69226000       6
H              -0.67692700      7.65900000      3.77227000       1
N              -4.39071000     -5.70272000     -4.73015000       7
H               8.43816000     -0.10065700      1.73011000       1
P              -4.71325000     -1.19922000     -7.12497000      15
N               4.48123000     -5.70272000     -4.73015000       7
H              -6.08991000     -4.75939000     -3.91332000       1
H              -7.96322000     -1.62992000      3.01128000       1
H               3.76433000     -7.36619000      2.60108000       1
H               4.68170000     -4.96172000     -5.43031000       1
H               5.07111000     -6.93732000      1.65676000       1
N              -0.71179200      8.15038000     -3.15279000       7
H               3.80755000      2.49929000      7.50616000       1
I              -2.84340000     -3.78606000     -7.42631000      53
P               3.81124000      7.92945000     -0.83759600      15
H              -1.75047000      8.06905000     -3.16945000       1
I               3.29304000      7.85173000      2.41399000      53
N               8.24741000     -0.89109700     -3.15279000       7
I               5.99496000     -3.88766000      5.29545000      53
H               8.51434000     -0.04910480     -2.61191000       1
H               8.75795000     -1.62866000      0.84488700       1
I              -6.64724000      1.30769000      5.87767000      53
H              -0.49714500      7.37516000     -5.09655000       1
P               8.32087000      3.43984000     -0.80098900      15
I               1.59284000      5.87114000     -6.69384000      53
H              -0.55609000     -1.28089000     -8.94949000       1
H               5.12638000     -6.70541000      3.31496000       1
H              -7.89077000     -0.69816200     -4.50253000       1
H              -0.52104400      8.94082000      1.73011000       1
P              -0.20925500     -5.70320000     -7.15039000      15
H              -8.98594000     -1.62866000      0.84488700       1
H               3.92838000     -6.44059000     -5.21560000       1
H               8.28227000     -1.38248000      3.77227000       1
H               8.66971000     -1.71275000     -2.67199000       1
I              -1.04728000      2.96922000      8.70387000      53
H               5.40824000     -6.07765000     -4.43479000       1
H              -0.34654000     -9.14214000      1.73011000       1
H              -5.10762000     -7.36619000      2.60108000       1
I               7.85825000      3.07082000     -4.01789000      53
H              -4.31109000      3.97817000      7.29145000       1
H              -0.44486000      8.99237000     -2.61191000       1
H              -5.06440000      2.49929000      7.50616000       1
N               8.75304000     -1.79038000      2.94312000       7
C              -0.19502200      8.26658000     -4.54283000       6
P              -5.06071000      7.92945000     -0.83759600      15
I               5.90771000      5.15382000      5.29545000      53
H              -0.27035600     -9.09058000     -2.61191000       1
H              -9.30574000     -0.10065700      1.73011000       1
H              -3.58455000      2.86223000      8.28697000       1
H               4.56086000      3.97817000      7.29145000       1
H               0.89392900      8.34332000     -4.50253000       1
H               8.61415000     -2.82169000      2.92507000       1
I              -2.93065000      5.25542000     -7.42631000      53
I              -7.45617000      5.88209000     -1.33730000      53
H              -9.22956000     -0.04910480     -2.61191000       1
H              -9.07419000     -1.71275000     -2.67199000       1
I              -6.61366000      1.40928000     -6.84409000      53
N              -8.99086000     -1.79038000      2.94312000       7
N              -0.65812600     -0.99269200      9.56897000       7
H              -4.94356000     -6.44059000     -5.21560000       1
N               4.36040000      3.23716000      7.99161000       7
H               8.33397000      0.11956000     -4.99808000       1
C              -9.50352000     -1.17437000      1.69226000       6
N              -4.51155000      3.23716000      7.99161000       7
H              -1.69681000     -1.07402000      9.55231000       1
I              -4.20080000     -1.17108000      8.74351000      53
H              -4.22383000     -5.06331000      7.29145000       1
I              -8.84239000      3.65051000      2.38974000      53
I              -4.25446000      7.97199000     -3.97825000      53
H               0.94231300     -1.52833000     -9.71048000       1
C               8.76418000     -0.77490100     -4.54283000       6
I               8.90150000      3.65051000      2.38974000      53
N              -0.08532460     -1.68879000     -9.77864000       7
I              -5.57890000      7.85173000      2.41399000      53
I              -7.22544000     -3.27194000      6.02791000      53
I               4.67115000     -1.17108000      8.74351000      53
I               2.31196000     -7.73379000      5.87767000      53
