200
cutoff_factor=1.20000000 nneightol=1.20000000 Lattice="28.87880000       0.00000000       0.00000000       0.00000000      27.97661000       0.00000000       0.00000000       0.00000000      28.48901000" Properties=species:S:1:pos:R:3:Z:I:1
P              -1.17760000     -1.24632000      0.03886730      15
I              -0.69583600      2.08122000      0.22734400      53
I               1.70057000     -2.64983000      0.25992600      53
I              -0.75886800     -0.91184100     -3.10254000      53
H               2.37560000     -1.10179000     -2.16564000       1
I              -1.26625000     -1.40535000      3.24468000      53
H               0.69499700      3.77110000     -1.04641000       1
H               3.24605000      0.42964400     -2.50480000       1
C               2.99716000     -0.56395800     -2.88326000       6
I              -4.20779000     -0.10712400     -0.09181940      53
H               3.28234000     -1.83710000      2.15275000       1
H               2.48898000     -0.49002800     -3.84732000       1
P              -3.80051000      3.04570000      0.02620660      15
I              -2.48298000     -4.20318000     -0.03503780      53
N               1.19101000      4.51326000     -1.58971000       7
H               0.66991200      3.73604000      3.23281000       1
H               2.12445000      4.14599000     -1.88578000       1
H              -0.56049100      4.54533000      2.20656000       1
H               1.47649000     -4.80321000     -0.96056400       1
H               4.71030000     -1.04474000      1.84098000       1
N               4.22066000     -1.62877000      2.55512000       7
H              -0.41915400     -3.70398000      3.74610000       1
H               0.24003500      4.09882000     -3.42533000       1
H              -0.46757100     -4.81425000     -2.39908000       1
N               4.26225000     -1.32496000     -3.07677000       7
H               4.79901000     -1.36918000     -2.18765000       1
C               0.29358900      4.69525000      2.87042000       6
H               4.17032000     -1.09255000      3.44423000       1
H               1.20071000     -4.88882000      2.35713000       1
H               1.03688000     -4.38193000     -3.27476000       1
H               1.36082000      5.33094000     -0.96056400       1
C               0.38019200      4.95455000     -2.76147000       6
P              -1.22252000      0.84189000     -5.60568000      15
H               4.06465000     -2.26560000     -3.47913000       1
H              -4.14806000     -2.62487000      3.12710000       1
H              -5.42451000     -1.04474000      1.84098000       1
H               1.08504000      5.24534000      2.35713000       1
H              -0.58324700      5.31990000     -2.39908000       1
C               0.49586800     -5.17960000     -2.76147000       6
P              -1.56742000      0.49303500      5.65809000      15
H              -5.33580000     -1.36918000     -2.18765000       1
I               5.92702000     -0.10712400     -0.09181940      53
N               1.30668000     -5.62090000     -1.58971000       7
I               1.30395000      1.72774000      5.59685000      53
H              -0.44481500     -5.58882000      2.20656000       1
I               4.43260000      3.32518000     -2.38721000      53
N              -0.04125320     -4.63318000      4.04217000       7
C               0.40926400     -5.43890000      2.87042000       6
H               4.84066000     -0.82869200     -3.79091000       1
I               1.64884000      2.07660000     -5.66692000      53
I               4.57539000      3.48931000      2.52935000      53
H              -5.05901000     -3.39239000      1.78458000       1
H               5.07580000     -3.39239000      1.78458000       1
C               4.99607000     -2.88509000      2.74864000       6
I              -2.59866000      5.93097000     -0.03503780      53
H               0.81067300     -6.36306000     -1.04641000       1
H               0.77444000     -4.45404000      4.67132000       1
C              -5.13875000     -2.88509000      2.74864000       6
H              -5.29416000     -0.82869200     -3.79091000       1
N              -5.91415000     -1.62877000      2.55512000       7
H               4.46537000     -3.51274000      3.46626000       1
H               2.24013000     -5.98817000     -1.88578000       1
H               0.92120900      5.75223000     -3.27476000       1
N              -5.87256000     -1.32496000     -3.07677000       7
N              -0.15692900      5.50098000      4.04217000       7
H              -0.89338200      4.99653000      4.58548000       1
H              -0.77770600     -5.13762000      4.58548000       1
H               0.35571100     -6.03534000     -3.42533000       1
H              -5.96450000     -1.09255000      3.44423000       1
I              -5.70221000      3.32518000     -2.38721000      53
P               6.33430000      3.04570000      0.02620660      15
I              -5.55942000      3.48931000      2.52935000      53
I              -2.22237000      3.93536000     -5.40454000      53
H               0.78558800     -6.39811000      3.23281000       1
I              -4.37049000      0.39865200     -5.72371000      53
H               5.98676000     -2.62487000      3.12710000       1
I              -4.71539000      0.04979690      5.54007000      53
I              -2.56727000      3.58650000      5.85923000      53
H              -6.88877000      0.42964400     -2.50480000       1
H              -6.07016000     -2.26560000     -3.47913000       1
I               3.27002000     -3.85655000     -5.37196000      53
H               0.65876500      5.68011000      4.67132000       1
H              -6.85247000     -1.83710000      2.15275000       1
H              -0.53482900      6.43017000      3.74610000       1
H              -5.66945000     -3.51274000      3.46626000       1
I               1.58489000      7.48433000      0.25992600      53
C              -7.13765000     -0.56395800     -2.88326000       6
P               4.24571000      3.06679000      5.67075000      15
I               5.41942000      0.04979690      5.54007000      53
H               2.14409000     -0.83888400      7.41646000       1
I               2.92513000     -4.20540000      5.89181000      53
H               1.11934000     -4.10519000     -6.59245000       1
P              -3.68484000     -7.08845000      0.02620660      15
P               4.59061000      3.41564000     -5.59302000      15
I              -0.58016000     -8.05293000      0.22734400      53
H              -7.75921000     -1.10179000     -2.16564000       1
I               5.76432000      0.39865200     -5.72371000      53
I              -0.92135700     -1.05650000     -8.01910000      53
H              -0.43280900     -4.78877000     -6.67829000       1
H              -0.07425690     -3.35513000     -7.51767000       1
I              -1.10376000     -1.26070000      8.16123000      53
N               0.30364300     -4.28432000     -7.22160000       7
I              -2.10670000     -6.19880000     -5.40454000      53
I               4.69107000     -6.64484000      2.52935000      53
I               4.54828000     -6.80897000     -2.38721000      53
H               4.96012000      6.74176000      1.78458000       1
H              -0.54848500      5.34539000     -6.67829000       1
H              -7.64583000     -0.49002800     -3.84732000       1
P              -5.54420000      3.41564000     -5.59302000      15
H               4.34969000      6.62141000      3.46626000       1
H              -5.17469000      6.74176000      1.78458000       1
H              -0.10486100      3.74996000      7.83845000       1
I               7.65183000     -4.20318000     -0.03503780      53
P              -5.88910000      3.06679000      5.67075000      15
H               4.49576000     -1.17755000      7.47286000       1
I               2.80945000      5.92875000      5.89181000      53
C               2.65227000     -0.91281300      8.38052000       6
I               3.15435000      6.27760000     -5.37196000      53
I              -8.43425000     -2.64983000      0.25992600      53
I              -5.44375000     -6.64484000      2.52935000      53
P              -1.29328000      8.88783000      0.03886730      15
H               1.00366000      6.02897000     -6.59245000       1
H               3.71976000     -2.61446000      7.78465000       1
P               8.95721000     -1.24632000      0.03886730      15
H               4.51521000     -0.74369000     -7.81954000       1
H               1.01481000      4.08490000     -8.03096000       1
I              -2.45159000     -6.54765000      5.85923000      53
I              -5.58653000     -6.80897000     -2.38721000      53
H               3.16667000      8.29705000      2.15275000       1
C               4.88039000      7.24907000      2.74864000       6
H              -4.26373000      7.50928000      3.12710000       1
H              -8.01036000      4.14599000     -1.88578000       1
H               2.90115000      0.08078830      8.75898000       1
N               3.91735000     -1.67382000      8.18700000       7
H              -3.80316000     -2.27601000     -8.13667000       1
N               0.18796800      5.84983000     -7.22160000       7
H               0.69198800     -4.73078000      7.98901000       1
C              -5.25442000      7.24907000      2.74864000       6
I              -1.38193000      8.72880000      3.24468000      53
H               2.03071000     -1.45064000      9.09813000       1
H              -5.63905000     -1.17755000      7.47286000       1
H              -5.78512000      6.62141000      3.46626000       1
H               3.94898000      7.86855000     -3.47913000       1
I              -6.86479000     -3.85655000     -5.37196000      53
I               8.86856000     -1.40535000      3.24468000      53
H               2.25993000      9.03237000     -2.16564000       1
P               6.44998000     -7.08845000      0.02620660      15
I               7.53616000      5.93097000     -0.03503780      53
H              -5.61960000     -0.74369000     -7.81954000       1
H               0.57631300      5.40337000      7.98901000       1
I               9.43898000      2.08122000      0.22734400      53
C               0.03529570      4.60570000      8.50230000       6
H               4.81026000     -3.16389000     -7.79752000       1
I              -0.87454400      9.22231000     -3.10254000      53
N               4.10499000      8.50538000      2.55512000       7
C               0.63848500      5.04411000     -8.39336000       6
C               0.75416100     -5.09005000     -8.39336000       6
N               4.56556000     -1.27992000     -8.70866000       7
I               9.37594000     -0.91184100     -3.10254000      53
H               3.62724000     -1.48824000     -9.11102000       1
P               4.70629000     -6.71851000     -5.59302000      15
H              -8.65832000     -4.80321000     -0.96056400       1
H              -5.32455000     -3.16389000     -7.79752000       1
I               1.76452000     -8.05755000     -5.66692000      53
H               5.87108000      7.50928000      3.12710000       1
P               4.36139000     -7.06737000      5.67075000      15
H              -7.89468000     -5.98817000     -1.88578000       1
C              -4.79385000     -2.53623000     -8.51514000       6
H               0.01081430     -6.38419000      7.83845000       1
H               1.54561000     -4.53996000     -8.90665000       1
H               1.13048000     -6.04925000     -8.03096000       1
H              -0.18993300      6.77903000     -7.51767000       1
C               0.15097100     -5.52846000      8.50230000       6
N              -8.94381000      4.51326000     -1.58971000       7
H               4.68334000      8.76498000     -2.18765000       1
I               1.41962000     -8.40641000      5.59685000      53
H              -0.92814300      4.97105000      8.86470000       1
N               4.14657000      8.80919000     -3.07677000       7
I               4.08771000      2.97632000      8.87656000      53
I              -7.20969000     -4.20540000      5.89181000      53
H              -9.43982000      3.77110000     -1.04641000       1
I               7.56754000      3.58650000      5.85923000      53
H               4.45412000     -1.71803000      9.07612000       1
H               1.77956000      3.79713000      9.37799000       1
P               8.56740000      0.49303500      5.65809000      15
P              -5.42853000     -6.71851000     -5.59302000      15
H              -0.81246700     -5.16311000      8.86470000       1
H              -0.21559400      4.89419000     -9.05721000       1
H              -8.77400000      5.33094000     -0.96056400       1
H               4.59462000      9.08941000      1.84098000       1
I               7.91244000      3.93536000     -5.40454000      53
C               5.34096000     -2.53623000     -8.51514000       6
C               2.88149000      9.57020000     -2.88326000       6
I              -8.48597000      2.07660000     -5.66692000      53
N              -6.21746000     -1.67382000      8.18700000       7
N              -5.56925000     -1.27992000     -8.70866000       7
H              -6.41506000     -2.61446000      7.78465000       1
H              -8.93410000     -4.88882000      2.35713000       1
H              -0.09991830     -5.23996000     -9.05721000       1
H               4.05464000      9.04161000      3.44423000       1
