200
cutoff_factor=1.20000000 nneightol=1.20000000 Lattice="28.81793000       0.00000000       0.00000000       0.00000000      28.68845000       0.00000000       0.00000000       0.00000000      29.37375000" Properties=species:S:1:pos:R:3:Z:I:1
P               0.01977270     -1.76022000     -0.02900290      15
I               1.93251000      0.83424400     -0.04780510      53
I              -2.61874000      0.06286790      0.10381600      53
H               0.18103000      2.54185000      1.77844000       1
H              -0.64057300      2.29605000     -2.10816000       1
H              -0.00557123      1.48853000      3.22033000       1
H               0.93967600      1.98861000     -2.90147000       1
I               0.06759900     -1.75538000     -3.21876000      53
I               0.36123800     -1.81658000      3.20812000      53
C              -0.16025400      2.49083000      2.81454000       6
C               0.16221400      2.73109000     -2.70791000       6
H              -1.21342000      2.77303000      2.88230000       1
H               0.58452500      3.60378000     -2.20441000       1
H               3.42925000     -0.49498300     -2.56755000       1
H               2.94737000     -1.24960000      2.94055000       1
I               2.74588000     -3.53707000     -0.08962490      53
H              -4.02460000     -0.85252800     -1.82622000       1
H               3.68156000     -2.01346000     -1.89464000       1
H               4.18901000     -0.97609800      1.83278000       1
I              -1.72610000     -4.38971000      0.06889080      53
H              -3.03275000     -1.65561000      3.40511000       1
I              -1.79838000      4.56883000      0.06889080      53
N               4.13094000     -1.24091000     -2.43385000       7
N               3.95177000     -0.99336400      2.84192000       7
N               0.64058800      3.45812000      3.62329000       7
H               1.65225000      3.21813000      3.60836000       1
N              -0.40734200      3.16874000     -4.01447000       7
H              -4.71904000     -0.97609800      1.83278000       1
H               4.08012000     -0.02390900      3.19464000       1
H              -0.82323500      2.37336000     -4.54685000       1
P              -4.41616000      2.82624000     -0.01339750      15
H               4.88346000     -0.85252800     -1.82622000       1
P               4.49189000      2.82624000     -0.01339750      15
N              -4.77711000     -1.24091000     -2.43385000       7
H               0.52328200      4.42788000      3.26843000       1
H              -3.49208000     -2.49100000     -3.54066000       1
H              -1.14641000      3.87743000     -3.88416000       1
H               0.59556000     -4.53066000      3.26843000       1
H              -3.77546000     -0.86725900     -4.25051000       1
C              -4.07086000     -1.95866000      3.55963000       6
H               0.30724600      3.46504000      4.60792000       1
H              -4.82794000     -0.02390900      3.19464000       1
N              -4.95629000     -0.99336400      2.84192000       7
H               0.65680400     -5.35475000     -2.20441000       1
H               0.32373500      3.58629000     -4.63077000       1
C              -4.23531000     -1.71515000     -3.73768000       6
H              -5.22650000     -2.01346000     -1.89464000       1
I               4.28790000      2.68229000      3.22991000      53
I               2.67360000      5.42147000     -0.08962490      53
H              -4.24323000     -2.95672000      3.15045000       1
I              -4.41508000      2.64772000     -3.21310000      53
H              -5.47881000     -0.49498300     -2.56755000       1
I               4.49298000      2.64772000     -3.21310000      53
H               3.84789000     -2.11787000     -4.32999000       1
C               4.67275000     -1.71515000     -3.73768000       6
I              -4.62016000      2.68229000      3.22991000      53
I               6.28932000      0.06286790      0.10381600      53
C               4.83720000     -1.95866000      3.55963000       6
H               4.66483000     -2.95672000      3.15045000       1
H              -1.07413000     -5.08110000     -3.88416000       1
H              -4.32093000     -1.93186000      4.62229000       1
N               0.71286600     -5.50041000      3.62329000       7
P               0.08694100     -1.72001000     -6.40793000      15
H               0.25330800     -6.41668000      1.77844000       1
I              -1.79484000      0.87633400     -6.37037000      53
P               0.14244000     -1.71746000      6.45503000      15
H               5.13260000     -0.86725900     -4.25051000       1
H              -5.96069000     -1.24960000      2.94055000       1
H               4.58713000     -1.93186000      4.62229000       1
C               0.23449200     -6.22745000     -2.70791000       6
I               2.02920000      0.84544600      6.50361000      53
I              -2.48262000      0.07772780      6.41579000      53
H              -1.14114000     -6.18550000      2.88230000       1
H               5.41598000     -2.49100000     -3.54066000       1
H              -5.06017000     -2.11787000     -4.32999000       1
H               5.87531000     -1.65561000      3.40511000       1
H               1.72453000     -5.74041000      3.60836000       1
H              -0.56829500     -6.66249000     -2.10816000       1
I              -6.97555000      0.83424400     -0.04780510      53
N              -0.33506400     -5.78979000     -4.01447000       7
C              -0.08797600     -6.46770000      2.81454000       6
H               0.39601300     -5.37224000     -4.63077000       1
I              -6.16218000     -3.53707000     -0.08962490      53
I               2.70549000      0.05732540     -6.57912000      53
H               0.37952400     -5.49349000      4.60792000       1
P              -0.05250530      7.19832000     -0.02900290      15
P              -4.34389000     -6.13229000     -0.01339750      15
H               1.01195000     -6.96992000     -2.90147000       1
P               4.56417000     -6.13229000     -0.01339750      15
I              -2.51710000     -3.64262000     -6.36505000      53
I               0.28896000      7.14195000      3.20812000      53
I              -1.58400000     -4.41314000      6.28953000      53
I              -0.00467906      7.20315000     -3.21876000      53
I              -1.65628000      4.54539000      6.28953000      53
I               2.82373000     -3.59413000      6.49829000      53
H              -4.31551000      6.00181000      3.15045000       1
H              -0.75095700     -6.58517000     -4.54685000       1
I               1.87915000     -4.41034000     -6.45287000      53
H               3.60928000      6.94508000     -1.89464000       1
I               1.80687000      4.54820000     -6.45287000      53
H               0.06670680     -7.47001000      3.22033000       1
H               4.59255000      6.00181000      3.15045000       1
H              -3.56435000      6.46753000     -3.54066000       1
P              -4.27483000      2.76806000      6.46072000      15
I              -6.23446000      5.42147000     -0.08962490      53
P               4.43193000      2.75300000     -6.41362000      15
P              -4.47613000      2.75300000     -6.41362000      15
I               4.36018000     -6.27624000      3.22991000      53
I              -4.34280000     -6.31081000     -3.21310000      53
I               2.00478000     -8.12429000     -0.04780510      53
I              -4.54788000     -6.27624000      3.22991000      53
I               7.18195000     -4.38971000      0.06889080      53
P               4.63323000      2.76806000      6.46072000      15
I               4.56526000     -6.31081000     -3.21310000      53
I               7.10968000      4.56883000      0.06889080      53
H              -0.03144070      2.53861000     -8.24637000       1
H              -3.10503000      7.30292000      3.40511000       1
H               7.69464000      2.77303000      2.88230000       1
I              -2.58937000      5.31591000     -6.36505000      53
H              -7.96838000      1.98861000     -2.90147000       1
H              -7.25581000      3.21813000      3.60836000       1
H               2.87509000      7.70894000      2.94055000       1
H               8.26748000      2.29605000     -2.10816000       1
I               2.75145000      5.36440000      6.49829000      53
H              -0.51387700      2.37019000      8.53866000       1
C              -4.14314000      6.99988000      3.55963000       6
H               3.77561000      6.84066000     -4.32999000       1
H              -5.29878000      6.94508000     -1.89464000       1
I              -6.20257000      0.05732540     -6.57912000      53
N               4.05867000      7.71762000     -2.43385000       7
P              -8.88828000     -1.76022000     -0.02900290      15
I               6.42544000      0.07772780      6.41579000      53
P               8.92783000     -1.76022000     -0.02900290      15
H               5.34370000      6.46753000     -3.54066000       1
H               4.11673000      7.98244000      1.83278000       1
H              -3.96575000     -0.88418000      8.23789000       1
C               4.76492000      6.99988000      3.55963000       6
C              -4.30759000      7.24338000     -3.73768000       6
I              -2.54646000     -8.89567000      0.10381600      53
H              -8.72703000      2.54185000      1.77844000       1
H              -4.09688000      8.10601000     -1.82622000       1
N               3.87949000      7.96517000      2.84192000       7
I              -8.54682000     -1.81658000      3.20812000      53
H              -8.32353000      3.60378000     -2.20441000       1
H              -4.23904000     -1.02302000     -8.26074000       1
C               4.60047000      7.24338000     -3.73768000       6
H               0.77083300      3.62081000      8.61815000       1
H               3.79533000     -2.09711000      8.32180000       1
I              -2.69102000      9.02140000      0.10381600      53
N              -4.84939000      7.71762000     -2.43385000       7
H               3.35697000      8.46355000     -2.56755000       1
H              -4.79132000      7.98244000      1.83278000       1
H              -4.39321000      7.02667000      4.62229000       1
I              -6.87886000      0.84544600      6.50361000      53
H               7.76164000      3.87743000     -3.88416000       1
C               8.74780000      2.49083000      2.81454000       6
H               4.66901000     -1.02302000     -8.26074000       1
H               4.51485000      7.02667000      4.62229000       1
C               0.31098200      2.77291000      9.13098000       6
C              -8.74584000      2.73109000     -2.70791000       6
I              -8.84046000     -1.75538000     -3.21876000      53
H               8.08482000      2.37336000     -4.54685000       1
H               8.90249000      1.48853000      3.22033000       1
H              -5.13245000      6.84066000     -4.32999000       1
I               7.11322000      0.87633400     -6.37037000      53
H              -8.91363000      1.48853000      3.22033000       1
H               1.05422000      1.99706000      9.32800000       1
I              -6.08432000     -3.59413000      6.49829000      53
H               4.81118000      8.10601000     -1.82622000       1
H               9.08909000      2.54185000      1.77844000       1
C               0.21862800      2.51181000     -9.30902000       6
H               4.94230000     -0.88418000      8.23789000       1
H               3.47216000     -0.59303800      8.98449000       1
N              -8.26747000      3.45812000      3.62329000       7
P               0.01466300      7.23853000     -6.40793000      15
I               8.97566000     -1.75538000     -3.21876000      53
P               0.07016160      7.24107000      6.45503000      15
I               6.39096000     -3.64262000     -6.36505000      53
H              -2.89404000     -1.26994000     -9.26029000       1
I              -0.25839000     -1.80577000     -9.63874000      53
C              -9.06831000      2.49083000      2.81454000       6
I               0.20349100     -1.82275000      9.65555000      53
H               0.04625910      1.51375000     -9.71820000       1
N              -5.02857000      7.96517000      2.84192000       7
C               9.07027000      2.73109000     -2.70791000       6
H              -7.18353000     -5.74041000      3.60836000       1
P              -4.20255000     -6.19047000      6.46072000      15
N               4.21123000     -1.30173000      8.85418000       7
H              -3.84774000      8.09127000     -4.25051000       1
N               8.50071000      3.16874000     -4.01447000       7
H               5.80303000      7.30292000      3.40511000       1
P              -4.40385000     -6.20553000     -6.41362000      15
H               1.25674000      2.81486000     -9.46354000       1
I               1.86023000      9.79278000     -0.04780510      53
I               9.26930000     -1.81658000      3.20812000      53
H              -5.11272000     -2.09711000      8.32180000       1
P               4.50421000     -6.20553000     -6.41362000      15
H              -8.31250000     -4.53066000      3.26843000       1
H              -8.38478000      4.42788000      3.26843000       1
H              -9.54863000      2.29605000     -2.10816000       1
