200
cutoff_factor=1.20000000 nneightol=1.20000000 Lattice="28.90089000       0.00000000       0.00000000       0.00000000      29.69397000       0.00000000       0.00000000       0.00000000      29.08251000" Properties=species:S:1:pos:R:3:Z:I:1
I              -0.81833100     -0.91631000     -0.68372000      53
P               1.84446000      0.88948000     -0.72737100      15
H              -2.98435000      0.33626300      1.08477000       1
I               2.04711000      0.53157200      2.46685000      53
H              -1.40509000      0.93506300      2.82415000       1
H               1.49872000     -2.07013000      2.11656000       1
I               0.18073500      3.60223000     -0.61166300      53
H              -1.42212000      0.29684600     -3.37317000       1
N              -3.22142000      0.15770800      2.08108000       7
H              -2.98937000     -0.83404700      2.29259000       1
H               1.36790000     -3.46323000      1.17008000       1
H               0.22770800     -3.15397000      2.34959000       1
N               1.24161000     -3.07779000      2.12860000       7
C              -2.47561000      1.09023000      2.97685000       6
I               3.63642000     -1.97747000     -0.75437400      53
I               1.84793000      0.62739700     -3.90706000      53
H              -2.75402000      2.11453000      2.71857000       1
H               1.76641000     -3.13375000     -2.58833000       1
H               1.50999000     -1.95144000     -3.73713000       1
P              -2.57759000     -3.67209000     -0.69765400      15
C              -2.16936000      0.38447000     -4.16417000       6
H               0.37693300     -3.19270000     -3.54951000       1
H              -4.24813000      0.28060100      2.19675000       1
N               1.39250000     -2.96858000     -3.54481000       7
I              -2.38082000     -3.41875000      2.50742000      53
H              -3.41071000      1.67759000     -3.04039000       1
H              -2.74968000      0.86997400      4.01122000       1
I              -4.29416000      2.51709000     -0.76832500      53
H              -2.87521000     -0.44800900     -4.11940000       1
H               4.67930000      0.28060100      2.19675000       1
N              -2.92314000      1.65555000     -3.96261000       7
H              -2.30196000      2.48434000     -3.99269000       1
I               4.63327000      2.51709000     -0.76832500      53
C               2.06313000     -3.83295000      3.11918000       6
I               0.24016200     -5.34186000     -0.61166300      53
H               1.69643000      4.06305000      3.09611000       1
H              -1.68547000      0.42396400     -5.14235000       1
H               3.11523000     -3.73703000      2.84126000       1
H               1.89017000     -3.40666000      4.10997000       1
I              -5.29101000     -1.97747000     -0.75437400      53
H               1.30848000      5.48086000      1.17008000       1
I              -2.25271000     -3.67022000     -3.89297000      53
P              -2.63701000      5.27200000     -0.69765400      15
H               1.75586000     -4.88104000      3.09611000       1
H               5.94307000      0.33626300      1.08477000       1
N               5.70600000      0.15770800      2.08108000       7
P               1.99980000      0.79741800      5.69845000      15
I              -0.07068720     -1.60288000      5.96451000      53
H              -3.62413000      1.79993000     -4.71898000       1
H               0.16828100      5.79012000      2.34959000       1
H               1.92021000      4.10315000     -4.32207000       1
C               2.12261000     -3.78418000     -4.55919000       6
C               2.00370000      5.11114000      3.11918000       6
N               1.18218000      5.86630000      2.12860000       7
I              -0.37963300      2.88619000      5.65420000      53
H               5.93805000     -0.83404700      2.29259000       1
H               5.51672000      1.67759000     -3.04039000       1
I              -2.44025000      5.52534000      2.50742000      53
H               3.18222000     -3.52192000     -4.51625000       1
H               1.70698000      5.81034000     -2.58833000       1
H               3.05580000      5.20706000      2.84126000       1
H               0.31750600      5.75139000     -3.54951000       1
H               1.97964000     -4.84094000     -4.32207000       1
H               1.71318000     -3.55574000     -5.54595000       1
I              -2.31213000      5.27387000     -3.89297000      53
H               6.17340000      2.11453000      2.71857000       1
N               1.33307000      5.97551000     -3.54481000       7
H               1.83075000      5.53743000      4.10997000       1
P              -7.08296000      0.88948000     -0.72737100      15
C               2.06318000      5.15991000     -4.55919000       6
C               6.45182000      1.09023000      2.97685000       6
P              -2.46420000     -3.68072000      5.74051000      15
H               5.30329000      1.79993000     -4.71898000       1
I              -6.88031000      0.53157200      2.46685000      53
H               6.05221000     -0.44800900     -4.11940000       1
H               1.43929000      6.87396000      2.11656000       1
I               4.37498000     -1.31213000      5.77117000      53
P               6.34984000     -3.67209000     -0.69765400      15
N               6.00429000      1.65555000     -3.96261000       7
H               6.17774000      0.86997400      4.01122000       1
I              -0.36427900     -1.35019000     -7.29047000      53
P               1.95047000      0.77131000     -7.13275000      15
I              -4.55245000     -1.31213000      5.77117000      53
H              -5.81220000     -3.73703000      2.84126000       1
I               4.08906000      3.14187000      5.58278000      53
H               3.12279000      5.42217000     -4.51625000       1
I              -4.23473000     -6.42700000     -0.76832500      53
I              -0.13778500      3.13990000     -7.10209000      53
I               6.54661000     -3.41875000      2.50742000      53
H              -2.69459000     -6.82956000      2.71857000       1
I               3.57699000      6.96662000     -0.75437400      53
H              -2.76091000      0.93631600      7.32731000       1
H               1.65376000      5.38835000     -5.54595000       1
H              -2.24253000     -6.45975000     -3.99269000       1
C               6.75806000      0.38447000     -4.16417000       6
I               4.69269000     -6.42700000     -0.76832500      53
H              -7.42870000     -2.07013000      2.11656000       1
I              -4.83837000      3.14187000      5.58278000      53
H               1.45056000      6.99264000     -3.73713000       1
H               7.52234000      0.93506300      2.82415000       1
I              -0.87775900      8.02778000     -0.68372000      53
I              -7.07949000      0.62739700     -3.90706000      53
H              -5.74521000     -3.52192000     -4.51625000       1
H               6.62547000      2.48434000     -3.99269000       1
P              -2.52362000      5.26337000      5.74051000      15
I               8.10910000     -0.91631000     -0.68372000      53
H               7.50530000      0.29684600     -3.37317000       1
H              -7.16101000     -3.13375000     -2.58833000       1
P               6.29041000      5.27200000     -0.69765400      15
I              -0.32020500     -6.05790000      5.65420000      53
P               1.90389000     -8.05461000     -0.72737100      15
H              -5.87162000      5.20706000      2.84126000       1
H              -7.55952000     -3.46323000      1.17008000       1
P              -2.45354000     -3.69464000     -7.17480000      15
I               4.09446000     -1.60587000     -7.21906000      53
C              -6.86430000     -3.83295000      3.11918000       6
H              -1.29187000      0.97014000      8.35700000       1
H              -7.41744000     -1.95144000     -3.73713000       1
N              -7.68582000     -3.07779000      2.12860000       7
I               6.67472000     -3.67022000     -3.89297000      53
H              -3.35128000     -7.26650000     -3.04039000       1
H              -1.34566000     -8.00902000      2.82415000       1
H               0.88862900     -2.65210000      8.15427000       1
I               4.34398000      2.84915000     -6.90874000      53
C              -2.35148000      0.70787600      8.31406000       6
C              -2.41618000     -7.85386000      2.97685000       6
I              -4.58345000      2.84915000     -6.90874000      53
N              -2.86371000     -7.28854000     -3.96261000       7
I              -5.35044000      6.96662000     -0.75437400      53
H              -7.03725000     -3.40666000      4.10997000       1
I              -4.83297000     -1.60587000     -7.21906000      53
N              -7.53493000     -2.96858000     -3.54481000       7
H              -7.23100000      4.06305000      3.09611000       1
I               6.48718000      5.52534000      2.50742000      53
H               7.24195000      0.42396400     -5.14235000       1
H              -2.49446000     -0.34887900      8.55118000       1
H              -3.04880000      8.11004000      2.29259000       1
P              -6.92763000      0.79741800      5.69845000      15
I               2.10654000     -8.41252000      2.46685000      53
C              -6.80482000     -3.78418000     -4.55919000       6
I               4.14848000     -5.80222000      5.58278000      53
H              -5.80464000      5.42217000     -4.51625000       1
C              -6.92373000      5.11114000      3.11918000       6
H              -2.92493000     -8.60782000      1.08477000       1
H               2.82729000     -4.02807000      7.73091000       1
I              -0.07835730     -5.80419000     -7.10209000      53
H              -7.00722000      4.10315000     -4.32207000       1
H              -2.62259000      1.04537000     -8.76328000       1
H              -7.17157000     -4.88104000      3.09611000       1
P              -2.51297000      5.24945000     -7.17480000      15
H              -3.56471000     -7.14416000     -4.71898000       1
I               2.20063000      0.82184200      8.98028000      53
I               6.61529000      5.27387000     -3.89297000      53
H               2.21080000     -1.96769000      8.88056000       1
I              -4.77894000     -5.80222000      5.58278000      53
H              -1.36270000     -8.64724000     -3.37317000       1
I               1.90736000     -8.31669000     -3.90706000      53
P               6.46323000     -3.68072000      5.74051000      15
H              -2.69025000     -8.07411000      4.01122000       1
H              -7.61895000      5.48086000      1.17008000       1
I              -0.13011500      7.34120000      5.96451000      53
N               1.58962000     -2.79648000      8.91065000       7
I              -8.74669000      3.60223000     -0.61166300      53
H              -6.94779000     -4.84094000     -4.32207000       1
H              -8.69972000     -3.15397000      2.34959000       1
N              -3.16199000     -8.78638000      2.08108000       7
H               2.76786000      4.91602000      7.73091000       1
H               6.16652000      0.93631600      7.32731000       1
H              -7.22044000      5.81034000     -2.58833000       1
H               6.23283000     -6.82956000      2.71857000       1
H               5.57615000     -7.26650000     -3.04039000       1
C              -6.86424000      5.15991000     -4.55919000       6
H               1.72441000     -3.62208000     -8.86203000       1
C              -2.10994000     -8.55962000     -4.16417000       6
H              -7.21424000     -3.55574000     -5.54595000       1
H               1.57812000      4.04405000      8.75386000       1
H              -8.55049000     -3.19270000     -3.54951000       1
I              -9.74576000     -0.91631000     -0.68372000      53
I               9.10816000      3.60223000     -0.61166300      53
H              -3.04378000      9.28035000      1.08477000       1
H              -4.18870000     -8.66349000      2.19675000       1
H              -2.93464000      8.49608000     -4.11940000       1
C               2.34340000     -4.06756000      8.70908000       6
H              -7.09668000      5.53743000      4.10997000       1
N              -3.28085000      9.10180000      2.08108000       7
I              -0.75890400     -9.86040000     -0.68372000      53
H              -2.96410000      2.54061000      9.13612000       1
N              -3.08159000      1.52348000      9.32844000       7
N              -7.74525000      5.86630000      2.12860000       7
H              -1.48155000      9.24093000     -3.37317000       1
H               9.15513000     -3.15397000      2.34959000       1
I               1.98769000      9.47566000      2.46685000      53
P              -6.97696000      0.77131000     -7.13275000      15
P               1.78503000      9.83357000     -0.72737100      15
C              -2.44963000      0.61908400     -9.75407000       6
I              -2.56673000     -3.82463000      8.96620000      53
P               6.40380000      5.26337000      5.74051000      15
H              -1.62605000     -8.52012000     -5.14235000       1
H               5.36272000     -7.14416000     -4.71898000       1
H               4.73872000     -8.66349000      2.19675000       1
