200
cutoff_factor=1.20000000 nneightol=1.20000000 Lattice="28.08467000       0.00000000       0.00000000       0.00000000      28.95389000       0.00000000       0.00000000       0.00000000      28.23508000" Properties=species:S:1:pos:R:3:Z:I:1
H               0.43660700     -0.34395600     -1.12901000       1
C               0.09380610     -0.44367700     -2.16012000       6
H              -0.99400600     -0.36023200     -2.20814000       1
I               2.28977000      0.54360400      0.96895500      53
I              -2.06700000     -0.09285220      1.53063000      53
H               0.42042600     -1.39584000     -2.58164000       1
H               0.36308200      1.57207000     -2.58188000       1
P               0.53192300     -1.57070000      2.60857000      15
N               0.68527900      0.66077500     -2.96695000       7
H               1.72019000      0.62075600     -2.94765000       1
I               0.18858100     -3.63917000      0.11391100      53
I              -1.09058000      3.36927000     -1.18652000      53
H               0.77521300      3.53359000      1.12018000       1
H               0.34881100      0.58529700     -3.95018000       1
H              -3.92731000     -1.79309000     -0.05187280       1
P              -3.80698000      2.05826000     -0.05300050      15
H               3.41915000     -2.83490000     -0.46166600       1
H               0.46614900      2.93873000      3.45766000       1
H              -2.62344000     -3.80326000      0.33519700       1
N               1.01872000      4.21367000      1.86769000       7
I              -4.06616000      0.34777300     -2.71666000      53
H              -0.83587700      4.01797000      2.85644000       1
C               0.22502200      3.94368000      3.10415000       6
H              -3.86968000     -2.84212000     -1.50605000       1
H               2.03625000      4.13696000      2.05305000       1
C              -4.23899000     -2.74596000     -0.48322300       6
H               4.81929000     -1.79309000     -0.05187280       1
C               4.50761000     -2.74596000     -0.48322300       6
I               0.81824300      0.27033600      5.23309000      53
N              -3.66051000     -3.84925000      0.33479000       7
P               4.93962000      2.05826000     -0.05300050      15
I               4.68043000      0.34777300     -2.71666000      53
H               0.81907100      5.16510000      1.49748000       1
H              -2.54878000     -0.00658219      4.96384000       1
I               2.34830000     -3.09350000     -4.05796000      53
I               3.15907000     -3.24404000      3.38601000      53
H              -4.01713000     -3.76551000      1.31044000       1
I               3.23804000      4.48822000     -1.34775000      53
I              -2.05274000     -3.84510000     -3.72955000      53
H              -3.96360000     -0.77078000      4.16938000       1
I              -1.22419000     -3.65157000      4.38231000      53
H               4.87692000     -2.84212000     -1.50605000       1
P               0.55920600     -5.30318000     -2.62938000      15
H              -5.32745000     -2.83490000     -0.46166600       1
H               0.49347100      4.68884000      3.85628000       1
I              -3.94880000      3.81989000      2.67551000      53
H               0.86107900     -5.88323000      1.49748000       1
I              -1.14569000     -0.01298410     -6.07723000      53
H               4.72947000     -3.76551000      1.31044000       1
H              -3.97569000     -4.76094000     -0.05740680       1
H              -4.19138000      1.64453000      4.26829000       1
C              -3.61614000     -0.22299300      5.04788000       6
H               3.36623000      0.90463900      5.21009000       1
P               0.51719900      5.74514000     -2.62938000      15
N               5.08609000     -3.84925000      0.33479000       7
H               4.78299000     -0.77078000      4.16938000       1
H               4.55522000      1.64453000      4.26829000       1
H              -3.74279000      2.84947000     -4.50073000       1
I              -6.45682000      0.54360400      0.96895500      53
I               0.89674200      3.90892000     -5.22645000      53
P              -3.81785000     -1.58421000     -5.22678000      15
I               4.79780000      3.81989000      2.67551000      53
H               4.77090000     -4.76094000     -0.05740680       1
N              -4.35635000      1.07148000      5.11983000       7
N               4.39025000      1.07148000      5.11983000       7
I               6.67960000     -0.09285220      1.53063000      53
H              -2.47028000      3.63200000     -5.49570000       1
H              -3.82129000     -0.78911400      5.95881000       1
N               1.06073000     -6.83466000      1.86769000       7
H               0.61397900     -2.72091000     -6.60327000       1
H               0.27031100     -3.05329000      6.50937000       1
C               5.13046000     -0.22299300      5.04788000       6
H               6.12316000     -3.80326000      0.33519700       1
I              -5.50856000      4.48822000     -1.34775000      53
I              -5.58753000     -3.24404000      3.38601000      53
H               5.00381000      2.84947000     -4.50073000       1
C              -3.53764000      3.41559000     -5.41166000       6
H              -4.03146000      1.63875000      5.92867000       1
P               4.92875000     -1.58421000     -5.22678000      15
I               0.14657300      7.40916000      0.11391100      53
H               0.53547900     -6.35949000      3.85628000       1
I               3.28004000     -6.56011000     -1.34775000      53
H              -4.01770000      6.28739000     -0.05740680       1
H               2.07826000     -6.91137000      2.05305000       1
H              -5.38037000      0.90463900      5.21009000       1
H              -0.79386900     -7.03035000      2.85644000       1
H               0.81722100     -7.51474000      1.12018000       1
H              -7.02640000      0.62075600     -2.94765000       1
H              -2.66545000      7.24507000      0.33519700       1
H               3.44473000      4.54322000     -5.24946000       1
H               4.71514000      1.63875000      5.92867000       1
C               0.26703000     -7.10465000      3.10415000       6
H               4.92531000     -0.78911400      5.95881000       1
I               3.23757000      0.39454600     -7.07353000      53
I              -1.04858000     -7.67906000     -1.18652000      53
H               4.72890000      6.28739000     -0.05740680       1
I              -2.17325000      3.56465000      6.73000000      53
H              -3.88511000      2.86780000     -6.29016000       1
H               6.19782000     -0.00658219      4.96384000       1
H              -3.95296000      5.27733000     -4.53088000       1
I               2.22779000      4.31625000      6.40158000      53
H               7.75259000     -0.36023200     -2.20814000       1
N               0.60678000     -2.97781000      7.49259000       7
N              -3.70252000      7.19908000      0.33479000       7
P               0.43869900      2.10656000      7.83016000      15
C               0.34552900     -3.46606000     -7.35540000       6
P               0.61042200      2.06788000     -7.85097000      15
H              -6.71035000      4.13696000      2.05305000       1
H               0.28458300     -2.06652000      7.87766000       1
I              -6.39830000     -3.09350000     -4.05796000      53
C               5.20896000      3.41559000     -5.41166000       6
H               1.64170000     -3.01783000      7.51189000       1
N              -4.27785000      4.71006000     -5.33971000       7
H              -3.91096000     -5.77100000     -4.53088000       1
H               0.58665600     -4.47101000     -7.00189000       1
H              -0.71537000     -3.39177000     -7.60311000       1
P              -3.89635000     -5.22279000      5.23277000      15
I              -2.09475000      7.20323000     -3.72955000      53
H              -8.30999000     -0.34395600     -1.12901000       1
N               4.46875000      4.71006000     -5.33971000       7
H              -4.05913000      7.28281000      1.31044000       1
H               4.79364000      5.27733000     -4.53088000       1
I               7.65601000      3.36927000     -1.18652000      53
H               4.86149000      2.86780000     -6.29016000       1
I               6.69386000     -3.84510000     -3.72955000      53
N              -8.06132000      0.66077500     -2.96695000       7
I              -3.90679000     -7.22844000      2.67551000      53
I              -5.46655000     -6.56011000     -1.34775000      53
I              -1.26620000      7.39676000      4.38231000      53
H              -5.30187000      4.54322000     -5.24946000       1
H               4.68746000      7.28281000      1.31044000       1
P              -8.21468000     -1.57070000      2.60857000      15
P              -3.93836000      5.82554000      5.23277000      15
H               4.83564000     -5.77100000     -4.53088000       1
H              -7.97139000      3.53359000      1.12018000       1
N               5.04408000      7.19908000      0.33479000       7
H              -8.32617000     -1.39584000     -2.58164000       1
H               0.50815700     -8.10960000      3.45766000       1
P               4.85025000     -5.22279000      5.23277000      15
H               3.37715000      8.21343000     -0.46166600       1
I               0.93875000     -7.13941000     -5.22645000      53
H              -8.38352000      1.57207000     -2.58188000       1
C              -8.65279000     -0.44367700     -2.16012000       6
I              -5.50903000      0.39454600     -7.07353000      53
N              -7.72787000      4.21367000      1.86769000       7
H               3.48674000     -6.50511000     -5.24946000       1
I               3.11706000      7.80429000      3.38601000      53
H               6.27632000      3.63200000     -5.49570000       1
I               4.83980000     -7.22844000      2.67551000      53
C               8.84040000     -0.44367700     -2.16012000       6
H              -4.11288000      5.28312000     -6.19125000       1
P               4.80824000      5.82554000      5.23277000      15
H              -3.91168000      8.20621000     -1.50605000       1
I               2.30629000      7.95483000     -4.05796000      53
H              -1.07251000     -3.99882000      8.25141000       1
N               1.13923000     -3.19608000     -8.59186000       7
C               0.01530660     -4.08226000      8.29943000       6
H               9.18321000     -0.34395600     -1.12901000       1
H               2.15675000     -3.27279000     -8.40650000       1
H               0.93957800     -2.24465000     -8.96206000       1
H              -8.39779000      0.58529700     -3.95018000       1
I              -8.55802000     -3.63917000      0.11391100      53
N              -4.23584000     -6.33827000     -5.33971000       7
H               7.91072000      4.01797000      2.85644000       1
I              -1.16908000     -0.26931200      9.27302000      53
C              -4.28100000      8.30237000     -0.48322300       6
H               0.34192700     -5.03442000      7.87790000       1
H               4.63372000      5.28312000     -6.19125000       1
I              -4.14466000     -3.29081000      7.74289000      53
I              -3.82829000     -3.58985000     -7.78403000      53
H              -4.07087000     -5.76521000     -6.19125000       1
N               4.51076000     -6.33827000     -5.33971000       7
C               4.46560000      8.30237000     -0.48322300       6
I               7.52240000     -3.65157000      4.38231000      53
H              -8.28045000      2.93873000      3.45766000       1
H               6.08115000      7.24507000      0.33519700       1
I              -7.92836000      0.27033600      5.23309000      53
H              -2.42827000     -7.41633000     -5.49570000       1
I               2.26980000     -6.73208000      6.40158000      53
H              -7.92753000      5.16510000      1.49748000       1
I               4.60193000     -3.29081000      7.74289000      53
H               9.10968000      1.57207000     -2.58188000       1
H               0.54464900      6.57732000     -7.00189000       1
H               9.16702000     -1.39584000     -2.58164000       1
H               4.83492000      8.20621000     -1.50605000       1
I               8.93518000     -3.63917000      0.11391100      53
H               4.67573000     -5.76521000     -6.19125000       1
I               3.15954000      0.84963200      9.11180000      53
I               7.60090000     -0.01298410     -6.07723000      53
P              -3.76497000     -8.99007000     -0.05300050      15
P               9.27852000     -1.57070000      2.60857000      15
I              -1.98850000      3.54573000     -8.92891000      53
H              -6.66834000     -6.91137000      2.05305000       1
H              -5.36945000      8.21343000     -0.46166600       1
H               0.40509000     -9.47626000     -2.58188000       1
P               0.48991500      9.47763000      2.60857000      15
H              -5.25986000     -6.50511000     -5.24946000       1
I               4.91830000     -3.58985000     -7.78403000      53
C              -8.52158000      3.94368000      3.10415000       6
N               9.43188000      0.66077500     -2.96695000       7
