200
cutoff_factor=1.20000000 nneightol=1.20000000 Lattice="29.25960000       0.00000000       0.00000000       0.00000000      28.90394000       0.00000000       0.00000000       0.00000000      29.03425000" Properties=species:S:1:pos:R:3:Z:I:1
I               1.81268000      0.46142600      0.35441200      53
P              -0.05135970     -2.24626000     -0.02962330      15
H               0.64910200      1.62212000     -1.84707000       1
I              -2.56740000     -0.24601400     -0.52306100      53
H              -0.87612200      1.07907000     -2.23869000       1
H               0.32133100      1.32103000      2.31862000       1
N              -0.20393000      1.85427000     -2.39012000       7
H              -0.62813600      2.71275000     -1.97654000       1
N              -0.08167540      1.77597000      3.16455000       7
H              -1.11596000      1.66662000      3.16495000       1
I               0.59583400     -1.99576000     -3.18686000      53
I              -0.53873700     -2.20841000      3.11563000      53
H               0.32257900      1.28665000      3.99138000       1
C               0.10755200      2.02249000     -3.83933000       6
H              -0.13585500      3.70589000      2.32011000       1
H               0.59425100      1.11172000     -4.19444000       1
C               0.28374500      3.21962000      3.20356000       6
H               3.13177000     -1.88290000     -2.74198000       1
I              -1.91386000      4.31450000     -0.48530300      53
H               1.37307000      3.30137000      3.20361000       1
I               2.52137000     -4.15518000      0.27162500      53
H              -3.44453000     -2.54408000      2.36812000       1
H              -4.25013000     -1.51083000     -1.97200000       1
H               0.77187100      2.88177000     -3.95539000       1
H              -0.82943300      2.18534000     -4.37449000       1
H               3.63064000     -2.49520000      2.33170000       1
P               4.41801000      2.35612000     -0.05603350      15
P              -4.44918000      2.35612000     -0.05603350      15
H               3.83160000     -2.96983000     -1.69794000       1
I              -1.93160000     -4.78375000     -0.48530300      53
N               4.04973000     -2.25926000     -2.42428000       7
H               4.61706000     -1.51083000     -1.97200000       1
I              -3.76325000      2.16194000      3.07828000      53
H              -4.25849000     -0.44181000      3.27684000       1
H              -0.13204700      3.65703000      4.11382000       1
H              -3.13912000     -3.27907000     -3.19197000       1
I               2.53911000      4.94308000      0.27162500      53
I               3.86714000      2.40152000     -3.20407000      53
H               4.60870000     -0.44181000      3.27684000       1
N              -4.81746000     -2.25926000     -2.42428000       7
H               3.65239000     -1.23950000      4.39721000       1
C              -4.35425000     -2.53768000      2.97178000       6
H              -0.15359100     -5.39236000      2.32011000       1
H              -3.55512000     -1.32548000      4.49543000       1
N              -4.35022000     -1.31748000      3.82660000       7
C               4.51294000     -2.53768000      2.97178000       6
N               4.51697000     -1.31748000      3.82660000       7
H              -5.03559000     -2.96983000     -1.69794000       1
I               1.98499000      0.36644200      5.77176000      53
C              -4.08202000     -2.87274000     -3.56492000       6
H              -3.89703000     -2.09891000     -4.31166000       1
H              -5.23655000     -2.49520000      2.33170000       1
I               6.29979000     -0.24601400     -0.52306100      53
I               5.10395000      2.16194000      3.07828000      53
I              -5.00005000      2.40152000     -3.20407000      53
H               5.42266000     -2.54408000      2.36812000       1
I              -2.43622000     -0.20742400     -6.03710000      53
C               4.78517000     -2.87274000     -3.56492000       6
H              -5.73542000     -1.88290000     -2.74198000       1
H              -4.39113000     -3.41689000      3.61843000       1
H               4.47606000     -3.41689000      3.61843000       1
C               0.26600900     -5.87863000      3.20356000       6
P               0.04894040     -2.21162000      6.34028000      15
H              -0.64587300     -6.38550000     -1.97654000       1
P               0.04538620     -2.25907000     -6.32809000      15
H               1.35533000     -5.79688000      3.20361000       1
H              -0.14978300     -5.44122000      4.11382000       1
H               4.16633000     -3.66751000     -3.98679000       1
P              -0.03362350      6.85199000     -0.02962330      15
H               4.97016000     -2.09891000     -4.31166000       1
H              -5.21480000     -1.23950000      4.39721000       1
I              -2.43267000     -0.15997900      6.63127000      53
I              -7.05451000      0.46142600      0.35441200      53
H               5.31207000     -1.32548000      4.49543000       1
H              -4.70086000     -3.66751000     -3.98679000       1
I               1.98143000      0.31899700     -6.89661000      53
H               5.72807000     -3.27907000     -3.19197000       1
H              -3.12138000      5.81918000     -3.19197000       1
H               0.75413400     -6.21649000     -3.95539000       1
H               3.84934000      6.12842000     -1.69794000       1
I              -0.52100100      6.88984000      3.11563000      53
I              -6.34582000     -4.15518000      0.27162500      53
I               2.53741000     -4.15721000      5.87473000      53
N              -0.22166600     -7.24399000     -2.39012000       7
I              -1.90545000      4.35712000     -6.01574000      53
H               0.63136500     -7.47613000     -1.84707000       1
H              -3.42680000      6.55418000      2.36812000       1
I               0.61357000      7.10249000     -3.18686000      53
H               3.64838000      6.60306000      2.33170000       1
I              -1.92319000     -4.74114000     -6.01574000      53
H               4.18407000      5.43074000     -3.98679000       1
N              -0.09941160     -7.32228000      3.16455000       7
H              -4.37339000      5.68136000      3.61843000       1
I              -6.32809000      4.94308000      0.27162500      53
C               0.08981550     -7.07576000     -3.83933000       6
P               4.40027000     -6.74214000     -0.05603350      15
P              -4.38719000      2.37403000     -6.33142000      15
P              -4.38363000      2.42147000      6.33695000      15
P              -4.46692000     -6.74214000     -0.05603350      15
I               2.55514000      4.94104000      5.87473000      53
H               4.49380000      5.68136000      3.61843000       1
H              -5.01786000      6.12842000     -1.69794000       1
P               4.48000000      2.37403000     -6.33142000      15
H               0.30359500     -7.77722000      2.31862000       1
P               4.48356000      2.42147000      6.33695000      15
H              -1.13369000     -7.43164000      3.16495000       1
I               6.95333000      4.31450000     -0.48530300      53
I              -1.90190000      4.40456000      6.65264000      53
H              -4.68312000      5.43074000     -3.98679000       1
H              -0.84716900     -6.91291000     -4.37449000       1
C              -4.06429000      6.22551000     -3.56492000       6
N               4.06747000      6.83899000     -2.42428000       7
H               3.14951000      7.21535000     -2.74198000       1
I               3.84941000     -6.69673000     -3.20407000      53
I              -1.91963000     -4.69369000      6.65264000      53
H               7.99107000      1.07907000     -2.23869000       1
H              -0.89385800     -8.01918000     -2.23869000       1
I               2.53385000     -4.20465000     -6.79365000      53
C              -4.33652000      6.56057000      2.97178000       6
I               6.93560000     -4.78375000     -0.48530300      53
I              -3.78098000     -6.93631000      3.07828000      53
C               4.53067000      6.56057000      2.97178000       6
H               7.75124000      1.66662000      3.16495000       1
H               0.59780600      1.15916000      8.47394000       1
H              -8.21809000      1.62212000     -1.84707000       1
H              -0.82587800      2.23279000      8.29389000       1
C               4.80290000      6.22551000     -3.56492000       6
N              -4.79973000      6.83899000     -2.42428000       7
H              -5.21881000      6.60306000      2.33170000       1
I               2.55159000      4.89360000     -6.79365000      53
H               0.31902500      1.23920000     -8.67700000       1
H               0.30484300     -7.81160000      3.99138000       1
H               5.74581000      5.81918000     -3.19197000       1
H              -7.49412000      3.30137000      3.20361000       1
I               6.43097000     -0.20742400     -6.03710000      53
I               1.79495000     -8.63683000      0.35441200      53
H               5.44040000      6.55418000      2.36812000       1
H               8.23905000      2.71275000     -1.97654000       1
H              -4.23240000      7.58742000     -1.97200000       1
H              -8.54586000      1.32103000      2.31862000       1
I              -5.01779000     -6.69673000     -3.20407000      53
I              -6.88220000      0.36644200      5.77176000      53
H              -3.55868000     -1.37293000     -8.17294000       1
H               0.57651500     -7.98654000     -4.19444000       1
C               0.11110600      2.06994000      8.82905000       6
I              -8.27136000     -1.99576000     -3.18686000      53
H              -3.87929000      6.99934000     -4.31166000       1
P               8.81583000     -2.24626000     -0.02962330      15
H               4.63480000      7.58742000     -1.97200000       1
H               3.64884000     -1.28694000     -8.27116000       1
I               5.08621000     -6.93631000      3.07828000      53
I               8.32845000     -2.20841000      3.11563000      53
N               8.66326000      1.85427000     -2.39012000       7
P              -8.91855000     -2.24626000     -0.02962330      15
H               0.77542500      2.92921000      8.71298000       1
I              -2.54967000      8.85224000     -0.52306100      53
I               6.43452000     -0.15997900      6.63127000      53
H              -0.13560100      3.60959000     -8.55455000       1
P               0.06312230      6.83919000     -6.32809000      15
H              -8.27294000      1.11172000     -4.19444000       1
P               0.06667660      6.88663000      6.34028000      15
H               8.03776000      2.18534000     -4.37449000       1
H              -3.89347000     -2.05147000      8.35671000       1
H              -8.09532000      2.88177000     -3.95539000       1
N               8.78552000      1.77597000      3.16455000       7
H              -8.54461000      1.28665000      3.99138000       1
N              -9.07112000      1.85427000     -2.39012000       7
H               9.18852000      1.32103000      2.31862000       1
I              -6.32978000     -4.15721000      5.87473000      53
H              -5.71769000      7.21535000     -2.74198000       1
H               4.98790000      6.99934000     -4.31166000       1
H              -3.53739000      7.77277000      4.49543000       1
N              -8.94887000      1.77597000      3.16455000       7
N              -0.08522960      1.72853000     -9.50383000       7
N              -4.33249000      7.78077000      3.82660000       7
I               0.59938800     -1.94832000      9.48151000      53
H              -1.11951000      1.61917000     -9.50343000       1
I              -2.58514000     -9.34426000     -0.52306100      53
C              -8.58345000      3.21962000      3.20356000       6
H               3.67013000      7.85876000      4.39721000       1
I               1.83042000      9.55968000      0.35441200      53
I              -6.88576000      0.31899700     -6.89661000      53
H               8.73134000      3.70589000      2.32011000       1
C              -8.75964000      2.02249000     -3.83933000       6
N               4.53470000      7.78077000      3.82660000       7
H               9.51629000      1.62212000     -1.84707000       1
I              -0.54229100     -2.25585000     -9.55274000      53
H               5.30851000     -1.37293000     -8.17294000       1
H              -5.21835000     -1.28694000     -8.27116000       1
I              -6.31205000      4.94104000      5.87473000      53
H               4.97372000     -2.05147000      8.35671000       1
N              -4.35378000     -1.36492000     -8.84178000       7
C               8.97474000      2.02249000     -3.83933000       6
C               0.28019100      3.17217000     -9.46481000       6
H              -9.00305000      3.70589000      2.32011000       1
H              -7.51186000     -5.79688000      3.20361000       1
N               4.51341000     -1.36492000     -8.84178000       7
H              -9.74331000      1.07907000     -2.23869000       1
H              -9.49533000      2.71275000     -1.97654000       1
H               9.18977000      1.28665000      3.99138000       1
