200
cutoff_factor=1.20000000 nneightol=1.20000000 Lattice="29.00495000       0.00000000       0.00000000       0.00000000      29.13106000       0.00000000       0.00000000       0.00000000      28.74153000" Properties=species:S:1:pos:R:3:Z:I:1
P              -0.07614760      0.92707300      0.57695700      15
I              -1.92899000     -1.61883000     -0.08976920      53
I               2.20066000     -0.07514140     -1.58347000      53
I               1.45645000     -0.75368800      2.84509000      53
H              -1.63892000     -1.56031000     -2.59565000       1
I              -1.44248000      2.56398000     -1.80004000      53
H               1.56761000     -3.04409000      1.69448000       1
I              -2.15433000      1.99239000      2.73545000      53
I               1.80456000      3.49229000      1.14999000      53
H               2.06145000      2.23733000     -2.76770000       1
N              -1.52836000     -1.71098000     -3.62342000       7
H               1.45985000     -4.08749000     -0.52824600       1
H              -0.60775200     -2.17777000     -3.77865000       1
H               4.44020000      0.05438770     -0.28656200       1
H              -1.56415000     -0.80749500     -4.11314000       1
H               1.26084000      3.65941000     -2.42123000       1
H              -1.13886000     -2.07911000      3.99491000       1
N               1.56773000     -4.08005000      1.58041000       7
H               1.14487000      2.46757000      3.85261000       1
H               0.58991300     -4.40236000      1.74484000       1
H              -4.82363000      0.11215100     -0.32306700       1
H              -1.99037000     -0.55169500      4.39945000       1
N               2.01828000      3.25144000     -2.99868000       7
H               4.35548000      1.43888000      1.68011000       1
C               2.08968000     -4.51782000      0.25372400       6
H              -1.61823000      4.74215000      0.21698500       1
H               3.11782000     -4.16458000      0.15739800       1
C              -1.94046000     -1.62681000      4.58268000       6
H              -4.80561000      1.50318000      1.68281000       1
N               5.30103000      0.16148500      0.29170400       7
H               2.92176000      3.68458000     -2.71396000       1
H               5.34535000     -0.64279400      0.95691900       1
H               2.13120000     -4.45738000      2.36698000       1
C              -2.60848000     -2.61658000     -4.10658000       6
C               5.25397000      1.44166000      1.05869000       6
H               0.76806900      2.99645000     -4.67679000       1
H              -2.89695000     -2.09978000      4.35109000       1
H              -2.53805000     -3.55910000     -3.55997000       1
P               3.62761000     -1.76936000     -3.94408000      15
N              -5.65091000      0.16148500      0.29170400       7
P              -3.68207000     -4.26911000      0.59600200      15
C               1.00376000      2.63766000      4.92130000       6
I               1.25569000     -3.89011000     -3.97700000      53
H               5.22432000      2.27002000      0.34952500       1
H              -3.57218000     -2.14007000     -3.91873000       1
H              -5.60659000     -0.64279400      0.95691900       1
H               1.07418000      1.69513000      5.46791000       1
C               1.72456000      3.46941000     -4.44520000       6
C              -5.69797000      1.44166000      1.05869000       6
H               2.05645000     -5.60831000      0.21698500       1
H               0.04005640      3.11417000      5.10915000       1
C              -1.58501000      5.83264000      0.25372400       6
I              -1.58515000     -5.10236000      2.85118000      53
H               6.12831000      0.11215100     -0.32306700       1
H              -5.72762000      2.27002000      0.34952500       1
H              -0.55686800      6.18588000      0.15739800       1
I              -4.95718000      0.50097600     -3.94322000      53
P              -3.62829000      3.47066000     -3.90272000      15
H              -2.46737000     -2.78667000     -5.17527000       1
H               2.52616000      3.01711000     -5.03297000       1
I               5.23768000     -3.42620000     -1.76153000      53
P               3.65863000     -1.62556000      5.12516000      15
H              -0.74325500     -1.41165000      6.31392000       1
N              -1.64674000     -1.84478000      6.02920000       7
I               2.07987000     -0.00613983     -6.17670000      53
H              -6.51174000      0.05438770     -0.28656200       1
I              -2.07252000     -5.96026000     -1.66092000      53
I              -5.40791000     -2.51347000      2.65266000      53
H              -1.54348000      5.89308000      2.36698000       1
H               6.14634000      1.50318000      1.68281000       1
I               5.54403000     -2.51347000      2.65266000      53
H              -2.21484000      6.26297000     -0.52824600       1
H               1.67465000      4.54453000     -4.62843000       1
H               3.00449000      3.07647000      5.24923000       1
N               2.08387000      3.54326000      5.40446000       7
N              -2.10696000      6.27041000      1.58041000       7
I              -5.71426000     -3.42620000     -1.76153000      53
H              -3.08477000      5.94810000      1.74484000       1
H               2.04809000      4.44674000      4.91473000       1
H              -6.59646000      1.43888000      1.68011000       1
I               5.20474000      4.39020000     -1.66092000      53
H              -1.60357000     -2.85890000      6.26017000       1
P               3.59518000      6.08135000      0.59600200      15
I              -1.74290000      2.58275000     -6.37522000      53
I               4.86792000      1.36413000      5.05087000      53
H              -2.40417000     -1.43681000      6.60665000       1
I               5.99476000      0.50097600     -3.94322000      53
P              -3.71210000      3.48487000      5.08380000      15
I               2.32974000     -4.59525000      5.08466000      53
I               1.56300000      6.92426000     -1.76153000      53
I              -5.74720000      4.39020000     -1.66092000      53
I               1.53972000     -0.70602100      7.36696000      53
H               1.97332000      3.69392000      6.43223000       1
I              -2.10202000      1.82804000      7.26635000      53
H              -2.10708000      7.30637000      1.69448000       1
I              -1.34495000      5.75521000      5.08466000      53
P               0.04639350     -6.87980000     -3.90272000      15
I              -5.25983000      5.24810000      2.85118000      53
I              -2.41900000      6.46035000     -3.97700000      53
I              -6.08402000      1.36413000      5.05087000      53
I               5.69211000      5.24810000      2.85118000      53
I              -1.80768000     -1.76195000     -7.87789000      53
I               2.23220000     -7.78648000     -1.80004000      53
H               0.74324700     -3.81536000     -7.34777000       1
H              -2.05294000     -8.08044000      0.34952500       1
H              -4.35549000     -6.66588000     -2.71396000       1
H              -5.15572000      0.63884400     -6.66090000       1
P               7.26987000     -4.26911000      0.59600200      15
H               4.25493000      0.69386600     -7.28304000       1
P              -0.01705540      0.82711000     -8.43188000      15
I               1.86934000      7.83699000      2.65266000      53
P              -7.32433000     -1.76936000     -3.94408000      15
P              -0.03741190     -6.86559000      5.08380000      15
H               7.37976000     -2.14007000     -3.91873000       1
H               2.53410000     -3.75106000     -7.34506000       1
H               4.93553000     -6.69105000     -2.42123000       1
I               5.18538000     -3.26185000     -6.29243000      53
I              -5.47269000     -6.85817000      1.14999000      53
H               5.79622000      0.63884400     -6.66090000       1
I               5.47925000     -6.85817000      1.14999000      53
H              -7.83412000     -4.16458000      0.15739800       1
I              -2.15579000     -6.00793000     -6.18279000      53
I              -8.75128000     -0.07514140     -1.58347000      53
I               1.52036000     -8.35807000      2.73545000      53
C               1.64173000     -3.81258000     -7.96918000       6
P               7.32365000      3.47066000     -3.90272000      15
H               4.73920000      6.79136000     -3.55997000       1
P              -7.29331000     -1.62556000      5.12516000      15
H              -1.13092000     -8.84728000      1.68281000       1
I               5.12147000      4.34253000     -6.18279000      53
I              -5.76656000     -3.26185000     -6.29243000      53
H               5.34933000     -5.80593000     -4.62843000       1
N               5.23274000      1.01617000     -7.44747000       7
I               9.02295000     -1.61883000     -0.08976920      53
I              -1.46436000     -5.17136000      7.44441000      53
C              -2.02328000     -8.90880000      1.05869000       6
I              -5.10750000     -2.53224000      7.22784000      53
H               5.23263000      2.05213000     -7.33340000       1
H              -8.03018000      3.68458000     -2.71396000       1
H              -5.22916000     -5.90372000      4.91473000       1
H              -5.60261000     -5.80593000     -4.62843000       1
H               1.61208000     -2.98422000     -8.67835000       1
H              -6.01641000     -6.69105000     -2.42123000       1
N              -5.25897000     -7.09902000     -2.99868000       7
H               8.05499000     -2.09978000      4.35109000       1
H              -1.94157000      4.45343000     -8.07096000       1
I               8.79762000      1.99239000      2.73545000      53
P              -0.04707790      8.58110000     -3.94408000      15
N              -5.71920000      1.01617000     -7.44747000       7
P               7.23984000      3.48487000      5.08380000      15
H              -5.71931000      2.05213000     -7.33340000       1
H              -2.92177000     -8.91159000      1.68011000       1
I              -5.83047000      4.34253000     -6.18279000      53
P              -7.35676000      6.08135000      0.59600200      15
H              -8.89049000      2.23733000     -2.76770000       1
H               5.72278000     -5.90372000      4.91473000       1
N               5.69297000     -7.09902000     -2.99868000       7
I               1.51069000      7.08861000     -6.29243000      53
H               3.71474000     -7.23629000      5.10915000       1
I               5.84444000     -2.53224000      7.22784000      53
C               8.34346000     -2.61658000     -4.10658000       6
P              -0.06983690      0.98512700      9.62388000      15
H               6.59645000     -6.66588000     -2.71396000       1
H               4.44275000     -7.35401000     -4.67679000       1
H               9.31302000     -1.56031000     -2.59565000       1
I               1.68324000      3.63541000      8.93811000      53
H               8.41389000     -3.55910000     -3.55997000       1
C               5.39925000     -6.88105000     -4.44520000       6
H               3.70508000      8.21039000     -3.91873000       1
H              -4.16911000      0.93163900     -8.87048000       1
I              -9.14738000      3.49229000      1.14999000      53
H              -6.21274000      6.79136000     -3.55997000       1
C              -5.55269000     -6.88105000     -4.44520000       6
H               1.67066000      9.70767000      0.95691900       1
I               1.73602000      3.47739000     -9.11765000      53
H               1.55930000     -2.82620000      9.37740000       1
H              -6.69701000      0.69386600     -7.28304000       1
C               4.66878000      7.73388000     -4.10658000       6
H              -4.27277000     -7.27399000      5.24923000       1
H              -1.14059000      6.59940000     -7.34506000       1
I              -9.49549000     -0.75368800      2.84509000      53
C              -8.86226000     -4.51782000      0.25372400       6
H               5.07208000      1.16675000      8.49963000       1
N              -8.93366000      3.25144000     -2.99868000       7
H              -4.28244000      8.17269000     -3.77865000       1
H               8.96157000     -0.55169500      4.39945000       1
H              -7.94746000      3.07647000      5.24923000       1
H              -9.38433000     -3.04409000      1.69448000       1
H               4.81955000     -7.88289000      3.85261000       1
I               9.50946000      2.56398000     -1.80004000      53
H               7.86717000      5.94810000      1.74484000       1
H              -5.21581000     -8.11313000     -2.76770000       1
H              -4.75109000     -7.33335000     -5.03297000       1
P               3.59854000     -9.42339000      0.57695700      15
P              -0.01605390      8.72490000      5.12516000      15
H               0.77518600     -5.04183000      8.74132000       1
N              -5.19338000     -6.80720000      5.40446000       7
H               1.73311000     -5.89703000     -8.07096000       1
H              -8.82074000     -4.45738000      2.36698000       1
H              -4.22189000      1.08966000      9.18528000       1
