200
cutoff_factor=1.20000000 nneightol=1.20000000 Lattice="28.78154000       0.00000000       0.00000000       0.00000000      28.50739000       0.00000000       0.00000000       0.00000000      28.03497000" Properties=species:S:1:pos:R:3:Z:I:1
H               0.81443000      1.54578000     -0.36798400       1
I              -1.59309000     -0.45027800     -0.98096800      53
C               0.43640200      2.57002000     -0.40464400       6
H              -0.65313500      2.57380000     -0.48406900       1
P               0.43769500     -2.66980000     -0.01186360      15
I               1.33859000     -0.97220400      2.53860000      53
H               0.39709000      2.76233000      1.67155000       1
H              -2.57917000     -0.49194800      1.97194000       1
H               0.88291800      3.11140000     -1.24169000       1
N               0.81834000      3.25643000      0.86048800       7
I               2.97929000     -1.25666000     -1.57415000      53
H               0.05487710      0.50300900     -3.74863000       1
H               1.85542000      3.25298000      0.96031100       1
H               0.44696200      4.22999000      0.88045200       1
C              -3.56436000     -0.61623200      2.42667000       6
I              -1.50502000      2.28637000      3.55638000      53
H               0.02562840     -1.89516000     -4.09677000       1
H               1.67809000     -0.10552000     -4.21337000       1
C               0.65282700      0.06296860     -4.54984000       6
H               3.75811000     -1.80873000      2.08083000       1
H              -4.40963000     -1.43514000      0.70396800       1
H              -4.14373000      0.30577300      2.34024000       1
P              -3.92612000      1.07675000     -2.53199000      15
H               4.60137000     -1.43514000      0.70396800       1
H              -3.76166000     -2.59901000      1.73060000       1
N              -4.28909000     -1.69819000      1.69961000       7
I              -1.77478000     -4.27397000      1.68925000      53
H              -3.46596000     -0.90851900      3.47454000       1
I              -0.17126300     -4.12542000     -2.81113000      53
N               0.05485060     -1.25347000     -4.91796000       7
I               4.37650000      2.62593000      0.19470000      53
I              -1.73426000      3.28556000     -3.59011000      53
P               0.66894900      0.59579200      5.17924000      15
N               4.72190000     -1.69819000      1.69961000       7
I              -4.63449000      2.62593000      0.19470000      53
H               4.86727000      0.30577300      2.34024000       1
H              -0.94359500     -1.14356000     -5.21040000       1
H               0.64250800      0.70746700     -5.43147000       1
H               3.57771000     -3.61524000     -2.46014000       1
I               2.47856000     -5.02123000      0.89889200      53
P               5.08488000      1.07675000     -2.53199000      15
I               3.01759000      2.90242000     -4.16342000      53
H              -5.25288000     -1.80873000      2.08083000       1
H               0.60352400     -1.75246000     -5.64206000       1
I               2.88055000      2.95538000      4.29909000      53
C               5.44663000     -0.61623200      2.42667000       6
H               5.24933000     -2.59901000      1.73060000       1
H              -3.26296000     -3.78571000     -3.52919000       1
I              -3.42516000     -0.74838700     -5.15918000      53
I              -1.53434000      6.00398000      0.89889200      53
I              -6.03170000     -1.25666000     -1.57415000      53
P              -3.74606000      4.44322000      2.69689000      15
H              -3.40381000     -4.98229000     -2.19874000       1
H              -0.76831500      5.76887000     -2.81384000       1
N               3.78546000     -4.41407000     -3.09557000       7
H               5.54503000     -0.90851900      3.47454000       1
H               1.59429000      6.04292000     -2.19874000       1
H               3.42500000     -4.13304000     -4.03323000       1
I              -1.48002000     -1.40891000      6.40287000      53
H               6.43182000     -0.49194800      1.97194000       1
H               3.24458000     -5.25634000     -2.81384000       1
C              -3.76626000     -4.69325000     -3.18772000       6
H               1.38249000      5.52052000     -3.90300000       1
H              -5.43329000     -3.61524000     -2.46014000       1
H               1.10401000      4.96142000      4.92424000       1
P               0.26683200     -6.58199000      2.69689000      15
C               1.23184000      6.33196000     -3.18772000       6
N              -0.22743200      6.61114000     -3.09557000       7
H              -3.85510000     -3.60386000      5.13482000       1
P               5.26493000      4.44322000      2.69689000      15
H              -3.11512000      1.20919000      6.66329000       1
I               1.08822000     -5.05972000      5.40712000      53
I               7.41790000     -0.45027800     -0.98096800      53
N              -5.22553000     -4.41407000     -3.09557000       7
I               2.77913000     -1.02577000      6.97618000      53
I               5.58583000     -0.74838700     -5.15918000      53
H              -3.61561000     -5.50469000     -3.90300000       1
I               3.22332000      6.75124000      1.68925000      53
I               2.38007000     -3.75850000     -6.26721000      53
C               5.24473000     -4.69325000     -3.18772000       6
H               5.74803000     -3.78571000     -3.52919000       1
H              -0.44310800      5.57032000      5.35590000       1
H               5.60718000     -4.98229000     -2.19874000       1
H              -0.43518900      7.40997000     -2.46014000       1
I              -5.99340000      2.90242000     -4.16342000      53
N               0.55533800      5.46041000      5.64833000       7
H              -7.15557000      3.25298000      0.96031100       1
H               1.03165000      3.40281000     -7.09175000       1
H              -0.58789400      6.89217000     -4.03323000       1
H              -5.58599000     -4.13304000     -4.03323000       1
H               3.92549000      2.58084000      6.53306000       1
I              -6.13044000      2.95538000      4.29909000      53
H               0.52611600      4.81872000      6.46952000       1
H              -2.76247000      2.92817000      7.03711000       1
H               5.15589000     -3.60386000      5.13482000       1
I              -7.67241000     -0.97220400      2.53860000      53
P               0.16846100     -6.11809000     -5.38706000      15
H               4.45986000     -6.79522000      0.88045200       1
I               0.32922400      2.58846000      7.75517000      53
H              -4.55114000     -6.79522000      0.88045200       1
H              -2.81952000     -4.41685000      6.35293000       1
H               1.73514000      7.23950000     -3.52919000       1
P              -3.84443000      4.90712000     -5.38706000      15
I              -6.53244000     -5.02123000      0.89889200      53
H              -5.76641000     -5.25634000     -2.81384000       1
C              -3.84478000     -4.24836000      6.01645000       6
C              -3.26577000      2.02063000      7.37858000       6
H              -8.19656000      1.54578000     -0.36798400       1
I              -0.62159800     -8.39928000      0.19470000      53
H               3.56979000     -5.45489000      5.35590000       1
H              -3.14268000     -7.77223000      0.96031100       1
H              -7.33291000     -0.10552000     -4.21337000       1
I              -2.00551000     -4.42751000     -7.00991000      53
I              -4.18416000      6.89979000     -2.81113000      53
I              -2.92468000      5.96549000      5.40712000      53
I               7.23622000     -4.27397000      1.68925000      53
I               7.50597000      2.28637000      3.55638000      53
H               5.39539000     -5.50469000     -3.90300000       1
H              -5.08550000      2.58084000      6.53306000       1
P               0.58726700     -3.23458000      8.03431000      15
H               1.23644000      8.42620000      1.73060000       1
H              -3.89409000     -6.06379000      4.92424000       1
H               3.74507000      1.45754000      7.75245000       1
I               7.27674000      3.28556000     -3.59011000      53
H               8.35786000      2.57380000     -0.48406900       1
H              -8.12807000      3.11140000     -1.24169000       1
I               2.27864000     -7.73965000     -3.59011000      53
N              -8.19265000      3.25643000      0.86048800       7
N              -4.17976000     -7.76878000      0.86048800       7
I               4.82683000      6.89979000     -2.81113000      53
H              -0.75526800      2.50260000     -8.48547000       1
N               4.28595000      2.29981000      7.47073000       7
P               5.16656000      4.90712000     -5.38706000      15
C              -8.57459000      2.57002000     -0.40464400       6
H               5.89588000      1.20919000      6.66329000       1
P              -8.57330000     -2.66980000     -0.01186360      15
H              -4.44273000     -3.80832000      6.81767000       1
C               0.93325000      3.69510000     -8.13963000       6
C               5.16621000     -4.24836000      6.01645000       6
H              -4.11518000     -7.91381000     -1.24169000       1
H              -2.90333000      1.73159000      8.36756000       1
H               0.73595000      1.71232000     -8.83569000       1
H               4.56826000     -3.80832000      6.81767000       1
I              -5.78767000      6.75124000      1.68925000      53
P              -3.57520000      8.35541000     -0.01186360      15
N              -4.44276000     -5.56480000      5.64833000       7
H               1.14299000      7.42135000      5.13482000       1
H               3.35976000     -8.45141000     -0.48406900       1
N              -4.72504000      2.29981000      7.47073000       7
C               1.15331000      6.77685000      6.01645000       6
N               4.56823000     -5.56480000      5.64833000       7
N               4.83123000     -7.76878000      0.86048800       7
H              -8.61390000      2.76233000      1.67155000       1
P              -4.24655000     -2.27066000     -7.86940000      15
N               0.20852000      2.61314000     -8.86669000       7
I              -3.17479000      3.33913000     -8.02769000      53
I               2.72284000      0.03735720     -8.87704000      53
H               5.11691000     -6.06379000      4.92424000       1
I              -1.98051000     -8.12279000     -4.16342000      53
H              -5.44121000     -5.45489000      5.35590000       1
I              -2.11754000     -8.06983000      4.29909000      53
H               4.89581000     -7.91381000     -1.24169000       1
I              -6.23187000     -1.02577000      6.97618000      53
H               2.17857000      6.60836000      6.35293000       1
H               0.35388400      4.61710000     -8.22606000       1
H              -0.25478000      9.21648000      2.08083000       1
P               4.76444000     -2.27066000     -7.86940000      15
H              -5.26593000      1.45754000      7.75245000       1
N               0.70900700      9.32702000      1.69961000       7
H               4.40998000     -8.26288000      1.67155000       1
C              -8.35817000      0.06296860     -4.54984000       6
C               4.44930000     -8.45519000     -0.40464400       6
C               5.74522000      2.02063000      7.37858000       6
H               4.07819000      3.09864000      8.10616000       1
H              -8.56403000      4.22999000      0.88045200       1
H               1.91844000      3.81938000     -8.59436000       1
H              -4.60101000     -8.26288000      1.67155000       1
C              -4.56170000     -8.45519000     -0.40464400       6
I               7.47666000      6.00398000      0.89889200      53
H               0.58847300      9.59007000      0.70396800       1
H               8.06740000     -1.14356000     -5.21040000       1
H              -8.95612000      0.50300900     -3.74863000       1
H              -0.10339800     -3.95155000     -8.89474000       1
I              -1.63283000      7.26671000     -6.26721000      53
I               2.50787000     -8.73884000      3.55638000      53
H               5.86832000     -7.77223000      0.96031100       1
C               9.44739000      2.57002000     -0.40464400       6
H              -7.41671000      6.04292000     -2.19874000       1
P               9.44869000     -2.66980000     -0.01186360      15
H               9.06587000      0.50300900     -3.74863000       1
P              -8.34204000      0.59579200      5.17924000      15
H               6.24852000      2.92817000      7.03711000       1
I              -6.63093000     -3.75850000     -6.26721000      53
I              -2.03482000     -0.70990400     -9.66741000      53
H               6.19147000     -4.41685000      6.35293000       1
H               0.55536500      7.21689000      6.81767000       1
H               9.40808000      2.76233000      1.67155000       1
I              -1.03360000      9.76855000     -1.57415000      53
H               9.82542000      1.54578000     -0.36798400       1
P               5.43579000      8.35541000     -0.01186360      15
