200
cutoff_factor=1.20000000 nneightol=1.20000000 Lattice="28.89475000       0.00000000       0.00000000       0.00000000      29.12404000       0.00000000       0.00000000       0.00000000      27.60192000" Properties=species:S:1:pos:R:3:Z:I:1
I               0.84542500      0.84329100     -1.35554000      53
P              -1.74419000     -1.07044000     -1.43962000      15
H               1.41266000     -1.13562000      1.93614000       1
H               2.41582000     -1.35210000      0.46380200       1
I              -1.83973000     -1.32422000      1.77467000      53
C               2.39220000     -0.96342000      1.48448000       6
H               2.63576000      0.10149500      1.49389000       1
H              -1.17248000      2.78648000      0.45120300       1
H              -1.55412000      1.90565000      1.96810000       1
C              -1.22361000      2.85477000      1.54033000       6
H              -0.25308100      3.14141000      1.95130000       1
H               2.09779000     -0.39003500     -3.23299000       1
I               0.14397100     -3.65569000     -1.38870000      53
I              -3.61988000      1.49876000     -1.45854000      53
N               3.41491000     -1.68823000      2.28780000       7
P               2.74776000      3.43354000     -1.42124000      15
N               2.40331000     -1.11348000     -3.91897000       7
H               3.21640000     -2.70844000      2.30195000       1
H              -1.94740000     -4.11127000      1.52740000       1
H               2.93060000     -1.82862000     -3.37211000       1
H               1.54424000     -1.52606000     -4.31519000       1
N              -2.21892000      3.90744000      1.90102000       7
H               3.42395000     -1.32983000      3.26526000       1
H              -1.94822000      3.04434000     -3.34594000       1
I               2.95203000      3.62996000      1.79058000      53
H               4.37156000     -1.53898000      1.91162000       1
I              -1.45284000     -1.22511000     -4.66411000      53
H              -3.16421000      3.67067000      1.54617000       1
I               0.15290500      1.49775000      4.87939000      53
H              -4.52655000     -1.53898000      1.91162000       1
P              -1.61289000     -1.12347000      5.04258000      15
H              -1.93822000      4.83409000      1.52740000       1
I              -4.35679000     -2.88342000     -1.59653000      53
I               0.15314600      5.28966000     -1.38870000      53
H              -2.30925000      4.01304000      2.93501000       1
H              -1.70443000      2.11446000     -4.86188000       1
I               4.54133000     -2.88342000     -1.59653000      53
I               5.27824000      1.49876000     -1.45854000      53
C              -1.97179000      3.08449000     -4.43673000       6
N              -2.22810000     -5.03791000      1.90102000       7
H              -0.00677837      3.83695000     -4.57644000       1
C               3.26687000     -0.51892500     -4.98343000       6
I               0.99470100     -2.96525000      5.18148000      53
H              -1.18557000     -3.91040000     -4.50744000       1
H               2.70513000      0.27396600     -5.48033000       1
H              -0.26225600     -5.80395000      1.95130000       1
H               4.16415000     -0.11089300     -4.51262000       1
N              -5.48321000     -1.68823000      2.28780000       7
H              -2.31843000     -4.93232000      2.93501000       1
H              -1.18165000     -6.15888000      0.45120300       1
P               2.73858000     -5.51181000     -1.42124000      15
I               2.94285000     -5.31540000      1.79058000      53
H              -3.17339000     -5.27468000      1.54617000       1
I               2.60174000      3.48625000     -4.65581000      53
C              -1.23278000     -6.09059000      1.54033000       6
H              -6.26236000      0.10149500      1.49389000       1
N              -0.96798100      4.08980000     -4.88430000       7
H              -5.47417000     -1.32983000      3.26526000       1
H              -4.73397000     -0.11089300     -4.51262000       1
H              -2.95751000      3.39800000     -4.78778000       1
I              -4.37357000      0.59057200      4.87615000      53
P               2.77480000      3.30401000      5.02594000      15
H              -6.48230000     -1.35210000      0.46380200       1
I               4.52455000      0.59057200      4.87615000      53
H              -5.68172000     -2.70844000      2.30195000       1
C              -6.50592000     -0.96342000      1.48448000       6
H               3.53120000     -1.30495000     -5.69333000       1
H              -0.01595330     -5.10841000     -4.57644000       1
H              -1.17639000      5.03495000     -4.50744000       1
N              -0.97715600     -4.85555000     -4.88430000       7
H               5.73391000      3.67067000      1.54617000       1
H              -1.95739000     -5.90102000     -3.34594000       1
H              -5.96752000     -1.82862000     -3.37211000       1
P              -6.15036000      3.43354000     -1.42124000      15
I              -5.94609000      3.62996000      1.79058000      53
I              -3.45491000     -3.83042000      5.03401000      53
H              -0.92943700      4.17824000     -5.92110000       1
P               7.15393000     -1.07044000     -1.43962000      15
H               3.22557000      6.23692000      2.30195000       1
I               7.05839000     -1.32422000      1.77467000      53
H              -1.56329000     -7.03970000      1.96810000       1
C              -5.63125000     -0.51892500     -4.98343000       6
H              -6.80032000     -0.39003500     -3.23299000       1
C              -1.98096000     -5.86086000     -4.43673000       6
I              -4.34762000      6.06193000     -1.59653000      53
I               2.59256000     -5.45910000     -4.65581000      53
H              -0.93861200     -4.76712000     -5.92110000       1
N              -6.49481000     -1.11348000     -3.91897000       7
I               4.55050000      6.06193000     -1.59653000      53
H               3.43949000     -0.44967800      6.99091000       1
H              -7.48545000     -1.13562000      1.93614000       1
H               7.34400000      1.90565000      1.96810000       1
H              -0.98881300      3.01249000      7.21867000       1
H              -2.96668000     -5.54735000     -4.78778000       1
H              -5.36692000     -1.30495000     -5.69333000       1
H               5.72473000     -5.27468000      1.54617000       1
I              -3.44573000      5.11493000      5.03401000      53
N               6.67920000      3.90744000      1.90102000       7
I               1.00388000      5.98011000      5.18148000      53
H               2.42500000      7.59326000      0.46380200       1
I               1.07428000      0.79749300     -7.87799000      53
I              -1.83056000      7.62113000      1.77467000      53
P               2.76562000     -5.64135000      5.02594000      15
P              -1.60331000     -1.01343000     -7.88607000      15
H               1.42184000      7.80973000      1.93614000       1
I              -5.95527000     -5.31540000      1.79058000      53
P              -1.73501000      7.87491000     -1.43962000      15
I              -8.05269000      0.84329100     -1.35554000      53
H               6.95072000     -4.11127000      1.52740000       1
H               7.72564000      2.78648000      0.45120300       1
H               6.58887000      4.01304000      2.93501000       1
I               0.83625000     -8.10206000     -1.35554000      53
H              -6.19299000      0.27396600     -5.48033000       1
H               6.94990000      3.04434000     -3.34594000       1
C               7.67451000      2.85477000      1.54033000       6
H               1.41142000     -1.22991000      8.12423000       1
N               3.42408000      7.25712000      2.28780000       7
I               5.44321000     -3.83042000      5.03401000      53
H               5.94061000      3.39800000     -4.78778000       1
P              -6.15953000     -5.51181000     -1.42124000      15
H               2.93978000      7.11674000     -3.37211000       1
I              -3.62906000     -7.44660000     -1.45854000      53
C               2.40137000      7.98194000      1.48448000       6
I              -1.92746000     -1.14166000      8.25620000      53
H              -1.71360000     -6.83090000     -4.86188000       1
I              -6.29638000      3.48625000     -4.65581000      53
N               6.67002000     -5.03791000      1.90102000       7
P              -6.12332000      3.30401000      5.02594000      15
I              -3.37423000      1.66267000     -7.73053000      53
H               6.95990000      4.83409000      1.52740000       1
H              -7.35388000     -1.52606000     -4.31519000       1
H               1.55341000      7.41929000     -4.31519000       1
H               6.57969000     -4.93232000      2.93501000       1
N               3.40095000     -0.53811100      8.02771000       7
H              -5.67255000      6.23692000      2.30195000       1
C               6.92633000      3.08449000     -4.43673000       6
H              -1.82406000     -4.35395000      7.43168000       1
H               4.38074000      7.40637000      1.91162000       1
H               2.66450000     -2.51345000      8.05013000       1
I               0.14644600     -3.72687000     -8.03586000      53
I               7.44528000     -1.22511000     -4.66411000      53
C              -1.25315000      3.79852000      7.92857000       6
H              -5.45863000     -0.44967800      6.99091000       1
H              -4.51738000      7.40637000      1.91162000       1
I               0.14373000     -7.44761000      4.87939000      53
H              -1.81488000      4.59141000      7.43168000       1
P               7.28523000     -1.12347000      5.04258000      15
H               7.19369000      2.11446000     -4.86188000       1
C               2.39714000     -1.54342000      8.47527000       6
H               3.43312000      7.61553000      3.26526000       1
H               3.19254000      0.40703700      8.40456000       1
I               5.45239000      5.11493000      5.03401000      53
N               2.41248000      7.83187000     -3.91897000       7
P               2.91630000      3.50444000     -7.86943000      15
I              -1.44367000      7.72025000     -4.66411000      53
I               5.26906000     -7.44660000     -1.45854000      53
I               2.92526000      3.09233000      8.24789000      53
H               2.62659000     -8.84386000      1.49389000       1
N              -5.47404000      7.25712000      2.28780000       7
H               2.10697000      8.55532000     -3.23299000       1
H              -0.99798800     -5.93287000      7.21867000       1
H              -0.35586800      4.20655000      8.39939000       1
H               8.64504000      3.14141000      1.95130000       1
H               5.93144000     -5.54735000     -4.78778000       1
H               4.36215000     -0.79096400      8.33556000       1
P              -1.60371000      7.82188000      5.04258000      15
I              -4.22520000     -2.81969000     -8.03262000      53
H              -2.97578000      2.79138000      8.59682000       1
H              -4.53597000     -0.79096400      8.33556000       1
C              -1.26232000     -5.14684000      7.92857000       6
H               2.64494000      9.04685000      1.49389000       1
I              -6.30556000     -5.45910000     -4.65581000      53
I               0.15562100      5.21849000     -8.03586000      53
I              -8.75415000     -3.65569000     -1.38870000      53
I               5.52389000      1.66267000     -7.73053000      53
H              -0.36504300     -4.73881000      8.39939000       1
H               6.94072000     -5.90102000     -3.34594000       1
I               4.67292000     -2.81969000     -8.03262000      53
P              -6.13250000     -5.64135000      5.02594000      15
N              -5.49717000     -0.53811100      8.02771000       7
H               7.71255000     -3.91040000     -4.50744000       1
N              -2.11671000      3.20396000      8.99303000       7
I               9.04209000     -3.65569000     -1.38870000      53
H              -9.15120000      3.14141000      1.95130000       1
I               9.74355000      0.84329100     -1.35554000      53
H              -5.95834000      7.11674000     -3.37211000       1
H               7.71647000     -6.15888000      0.45120300       1
I              -7.90342000     -2.96525000      5.18148000      53
C               7.66534000     -6.09059000      1.54033000       6
I               0.85460000      9.78865000     -1.35554000      53
H              -5.46500000      7.61553000      3.26526000       1
H              -1.58941000      2.48882000      9.53989000       1
H              -6.47312000      7.59326000      0.46380200       1
H               2.42071000     -1.58358000      9.56606000       1
P               2.90713000     -5.44092000     -7.86943000      15
C               6.91716000     -5.86086000     -4.43673000       6
H               2.08862000     -9.33539000     -3.23299000       1
I              -8.74521000      1.49775000      4.87939000      53
H               3.54038000      7.64040000     -5.69333000       1
H              -5.70558000      0.40703700      8.40456000       1
