200
cutoff_factor=1.20000000 nneightol=1.20000000 Lattice="31.44350000       0.00000000       0.00000000       0.00000000      30.95790000       0.00000000       0.00000000       0.00000000      30.20810000" Properties=species:S:1:pos:R:3:Z:I:1
I              -0.44369900     -0.01270440     -0.87894100      53
H               0.33478300     -1.01916000      1.28038000       1
N               1.04019000     -1.28531000      2.00552000       7
H               1.34858000     -0.38501100      2.42143000       1
H               2.61819000     -1.22829000      0.60609700       1
P               1.71245000      2.26455000     -1.36280000      15
C               2.18395000     -1.94372000      1.30798000       6
H               0.59619900     -1.92274000      2.70467000       1
H               1.80346000     -2.81675000      0.77386000       1
I               2.47156000      2.02586000      1.82867000      53
P              -3.45328000     -0.69530000     -1.46246000      15
H               2.92225000     -2.24142000      2.05571000       1
I              -4.34550000     -0.59292800      1.60314000      53
I              -2.44534000      3.61534000      1.71841000      53
I               0.82010000      2.16142000     -4.42902000      53
H              -2.54962000      2.79611000     -3.43530000       1
I               4.72206000      1.58081000     -1.94669000      53
I              -3.53950000     -3.75271000     -1.41296000      53
I              -2.69551000     -0.45761800     -4.65391000      53
H               1.13249000      4.83350000      2.25349000       1
H               0.77198800      3.93918000      3.76895000       1
I              -0.44204800     -3.74592000      4.19208000      53
I               2.71875000     -2.04747000     -4.54351000      53
I               1.62697000      5.32173000     -1.41296000      53
P               0.23580100     -0.72911400     -5.69216000      15
H              -3.99688000     -2.20494000      3.48745000       1
C               0.64120400      4.87884000      3.22810000       6
H              -0.41873600      5.10896000      3.11061000       1
H              -2.87988000     -3.28003000      4.14478000       1
I              -5.61045000      1.58081000     -1.94669000      53
P              -4.92876000      2.29734000      2.86624000      15
H               1.80131000     -4.69007000     -3.60287000       1
C              -2.98467000      3.51119000     -4.13703000       6
I               5.98701000     -0.59292800      1.60314000      53
H              -4.03398000     -4.24093000      2.25349000       1
I               2.72070000     -5.45910000      1.71841000      53
N              -3.90193000     -3.09885000      4.02160000       7
P               5.40375000      2.29734000      2.86624000      15
H              -2.24719000      3.80868000     -4.88565000       1
H              -3.36473000      4.38437000     -3.60287000       1
H              -3.82101000      1.95183000     -5.24870000       1
H              -4.83378000      2.58668000     -4.10707000       1
H               4.74731000     -3.96547000      3.11061000       1
C              -4.52526000     -4.19560000      3.22810000       6
N              -4.12908000      2.85236000     -4.83309000       7
P               6.87923000     -0.69530000     -1.46246000      15
H              -3.36258000      6.25769000      0.77386000       1
H              -4.35956000     -3.00412000      4.95485000       1
H              -4.03547000     -3.26547000     -5.07852000       1
C               2.18137000     -5.56325000     -4.13703000       6
N               1.26454000      5.97559000      4.02160000       7
H               5.49873000      2.58668000     -4.10707000       1
P               0.23728800     -6.77709000      2.86624000      15
H               1.16802000      3.77357000     -6.31336000       1
H              -2.24379000      6.83301000      2.05571000       1
H               2.28659000      5.79440000      4.14478000       1
I              -4.79909000      1.06680000      5.67126000      53
H              -5.58520000     -3.96547000      3.11061000       1
H               0.80640800     -3.93579000      6.38802000       1
H               6.33563000     -2.20494000      3.48745000       1
H               2.61643000     -6.27833000     -3.43530000       1
H               0.33226100     -6.48776000     -4.10707000       1
H              -4.39448000     -5.13526000      3.76895000       1
H               2.91886000     -5.26576000     -4.88565000       1
I              -0.44440700     -7.49363000     -1.94669000      53
P              -3.45402000     -6.80988000     -1.36280000      15
I              -2.69490000     -7.04857000      1.82867000      53
H               1.16959000      6.86950000      3.48745000       1
H               1.13100000      5.80896000     -5.07852000       1
H               0.77132500     -1.80522000      7.57497000       1
H              -7.71432000     -1.22829000      0.60609700       1
C              -2.98210000      7.13072000      1.30798000       6
C               5.80725000     -4.19560000      3.22810000       6
H               0.80690400      6.07032000      4.95485000       1
H               0.59241100     -5.58497000     -5.53218000       1
I               6.79301000     -3.75271000     -1.41296000      53
H               6.29853000     -4.24093000      2.25349000       1
N               1.03696000     -6.22207000     -4.83309000       7
I              -0.44403300     -3.75967000     -7.01817000      53
H              -4.57363000      3.48946000     -5.53218000       1
I               5.53342000      1.06680000      5.67126000      53
H              -7.41026000     -2.24142000      2.05571000       1
H              -0.42050200      5.53352000     -5.93514000       1
N               6.43058000     -3.09885000      4.02160000       7
C              -4.52713000     -3.31048000     -6.05295000       6
I               4.72442000      5.32852000      4.19208000      53
H              -2.54785000      7.84614000      0.60609700       1
H              -4.39679000     -2.37054000     -6.59342000       1
I              -7.86095000      2.02586000      1.82867000      53
H               5.97295000     -3.00412000      4.95485000       1
N               1.26424000     -3.84140000      7.32119000       7
N               6.20343000      2.85236000     -4.83309000       7
N               1.26260000      4.66771000     -6.84720000       7
C               0.63933200      5.76395000     -6.05295000       6
H               4.74554000     -3.54092000     -5.93514000       1
H               2.28622000     -3.65993000      7.19780000       1
C              -8.14856000     -1.94372000      1.30798000       6
I               0.36530900      0.50147900     -8.49713000      53
H               6.51150000      1.95183000     -5.24870000       1
C               0.64097700     -2.74516000      8.11544000       6
H              -2.88189000     -4.22526000     -6.97060000       1
I               0.82096400      8.48151000      1.60314000      53
P               1.71319000      8.37914000     -1.46246000      15
H               5.93803000     -5.13526000      3.76895000       1
H               5.75888000      3.48946000     -5.53218000       1
I              -2.44729000      7.02696000     -4.54351000      53
H               6.29704000     -3.26547000     -5.07852000       1
H              -0.41885700     -2.97559000      8.23325000       1
H               2.28458000      4.84918000     -6.97060000       1
I              -5.60809000      5.32852000      4.19208000      53
I               7.88717000      3.61534000      1.71841000      53
H              -5.58697000     -3.54092000     -5.93514000       1
H              -4.56984000      7.15169000      2.70467000       1
H               1.34504000     -7.12260000     -5.24870000       1
I               7.63700000     -0.45761800     -4.65391000      53
H               7.78289000      2.79611000     -3.43530000       1
H               6.96778000      4.38437000     -3.60287000       1
H              -8.52905000     -2.81675000      0.77386000       1
P              -8.62006000      2.26455000     -1.36280000      15
C               5.80538000     -3.31048000     -6.05295000       6
N              -3.90387000     -4.40672000     -6.84720000       7
N              -4.12585000      7.78913000      2.00552000       7
H               0.80476300      4.57332000     -7.78038000       1
I              -7.61376000     -2.04747000     -4.54351000      53
C               7.34784000      3.51119000     -4.13703000       6
H               7.45263000     -3.28003000      4.14478000       1
I               4.72408000     -3.19435000      7.15022000      53
H              -3.99845000     -5.30086000     -6.31336000       1
H               5.93572000     -2.37054000     -6.59342000       1
H               1.16967000     -4.73554000      7.85503000       1
I              -0.44196500      5.88008000      7.15022000      53
H              -4.35964000      5.13864000      6.38802000       1
I              -4.34637000     -6.91301000     -4.42902000      53
H              -8.98393000     -0.38501100      2.42143000       1
H               1.34710000      2.51715000      8.91970000       1
H               6.96993000      6.25769000      0.77386000       1
H               0.76968000      6.70389000     -6.59342000       1
H              -2.87982000      5.41450000      7.19780000       1
H              -4.83126000      8.05528000      1.28038000       1
I              -7.61181000     -5.45910000      1.71841000      53
H               1.13264000     -2.70015000      9.08987000       1
H               0.59447900      4.05479000      8.63621000       1
H               5.76267000      7.15169000      2.70467000       1
N              -9.29232000     -1.28531000      2.00552000       7
I              -5.60843000     -3.19435000      7.15022000      53
P               6.87849000     -6.80988000     -1.36280000      15
H              -3.81746000      8.68942000      2.42143000       1
P              -4.92860000     -0.16379100      8.47624000      15
N              -3.90180000      5.23303000      7.32119000       7
I               0.36695300     -8.00763000      5.67126000      53
H              -3.99638000      4.33890000      7.85503000       1
I               2.47260000      0.10770500      9.51448000      53
I               0.82054100     -9.66736000      1.60314000      53
H               5.50125000      8.05528000      1.28038000       1
H               0.80483600     -3.56944000     -9.21355000       1
I               9.88881000     -0.01270440     -0.87894100      53
I               4.72243000      5.31476000     -7.01817000      53
H              -4.36170000     -4.50112000     -7.78038000       1
N               1.03903000      3.41769000      9.33530000       7
P               1.71276000     -9.76974000     -1.46246000      15
I              -2.44564000     -1.48215000      9.62489000      53
P               5.40391000     -0.16379100      8.47624000      15
I               2.47095000      8.61682000     -4.65391000      53
H              -9.99773000     -1.01916000      1.28038000       1
H               5.97287000      5.13864000      6.38802000       1
N               6.20665000      7.78913000      2.00552000       7
I               5.98614000     -6.91301000     -4.42902000      53
H               8.08532000      3.80868000     -4.88565000       1
I               4.72277000      9.06173000     -0.87894100      53
I               4.72234000     -9.08714000     -0.87894100      53
H              -9.73631000     -1.92274000      2.70467000       1
I              -8.70554000      5.32173000     -1.41296000      53
H              -7.41365000     -5.26576000     -4.88565000       1
C               7.35041000      7.13072000      1.30798000       6
N               6.42864000     -4.40672000     -6.84720000       7
H              -8.53120000     -4.69007000     -3.60287000       1
H               6.33406000     -5.30086000     -6.31336000       1
I              -5.61008000      5.31476000     -7.01817000      53
H              -3.81789000     -9.45945000      2.42143000       1
H              -7.71608000     -6.27833000     -3.43530000       1
H               0.33432900      3.15200000     10.06130000       1
I               7.63761000     -7.04857000      1.82867000      53
H              -2.54827000    -10.30270000      0.60609700       1
H              -9.20002000      4.83350000      2.25349000       1
H              -2.24554000     -4.70043000      9.28274000       1
H               2.92093000      4.37400000      9.28274000       1
I              -5.60974000      9.06173000     -0.87894100      53
C              -8.15114000     -5.56325000     -4.13703000       6
I              -9.51241000      2.16142000     -4.42902000      53
I              -5.61017000     -9.08714000     -0.87894100      53
H              -8.04592000      5.79440000      4.14478000       1
H               8.08872000      6.83301000      2.05571000       1
H               5.97081000     -4.50112000     -7.78038000       1
H              10.66730000     -1.01916000      1.28038000       1
I             -10.77620000     -0.01270440     -0.87894100      53
I              -0.44398400     10.65520000     -1.94669000      53
N               1.26247000     -3.66417000    -10.14680000       7
I               2.47053000     -9.53205000     -4.65391000      53
H               2.28452000     -3.84535000    -10.02360000       1
H               6.33613000      4.33890000      7.85503000       1
