200
cutoff_factor=1.20000000 nneightol=1.20000000 Lattice="28.27638000       0.00000000       0.00000000       0.00000000      28.19649000       0.00000000       0.00000000       0.00000000      27.51180000" Properties=species:S:1:pos:R:3:Z:I:1
H               0.19085300     -1.33504000     -1.01804000       1
H               1.28190000     -0.10342300     -1.36663000       1
N               1.20304000     -1.09426000     -1.05370000       7
H               1.59285000     -1.13582000     -0.09084890       1
I              -1.18660000      1.10803000      2.06848000      53
I              -2.37167000     -1.26285000     -1.56262000      53
I               1.15177000      2.43659000     -1.62310000      53
H              -2.49235000      1.30414000     -1.86427000       1
C               1.93763000     -2.01886000     -1.95875000       6
P               1.45302000      2.94050000      1.58324000      15
I               3.27215000      0.18015700      1.64360000      53
P              -2.95628000     -1.57135000      1.61478000      15
H              -1.41688000      2.44232000     -2.46519000       1
I              -0.21478000     -3.37792000      1.70123000      53
H               1.50767000     -1.93781000     -2.95981000       1
H               1.82790000     -3.03666000     -1.57730000       1
H               2.99040000     -1.72736000     -1.97057000       1
N              -2.42554000      2.23233000     -2.33092000       7
H               1.86605000     -0.72668800      3.71215000       1
H               0.69248000     -1.91612000      3.69785000       1
H              -2.57626000      3.36247000     -0.56070700       1
N               1.24695000     -1.29631000      4.32556000       7
C              -3.07217000      3.30763000     -1.53256000       6
H              -2.89247000      2.13512000     -3.25284000       1
H               0.60486500     -0.66784700      4.84478000       1
H              -2.91943000      2.85537000      3.36221000       1
H              -4.12872000      3.05871000     -1.40979000       1
I              -0.29689800      0.35992300     -5.35840000      53
H              -2.96288000      4.25183000     -2.07086000       1
P              -2.67117000     -1.73177000     -4.83741000      15
I              -0.38129900      5.57853000      1.70123000      53
H              -2.79636000     -4.70462000     -2.07086000       1
P               1.73381000      2.78282000     -4.85683000      15
H               4.80665000      3.05871000     -1.40979000       1
I              -5.66323000      0.18015700      1.64360000      53
I               4.16311000     -4.15303000      1.12913000      53
I               2.04315000      3.02932000      4.75071000      53
C               2.05117000     -2.10611000      5.28774000       6
I              -3.08527000     -2.12804000      4.76795000      53
H               2.71673000     -2.75845000      4.71814000       1
H              -2.40974000     -5.59398000     -0.56070700       1
H              -2.82574000      1.49615000      5.35504000       1
H              -1.56957000      2.77763000      5.36102000       1
N              -3.30491000      3.22758000      4.25348000       7
H               1.66139000      5.91979000     -1.57730000       1
I               3.99659000      4.80343000      1.12913000      53
I              -0.56248400     -4.11812000     -4.80201000      53
I               4.20950000      0.75481900     -4.74456000      53
P               5.97910000     -1.57135000      1.61478000      15
I              -4.77227000     -4.15303000      1.12913000      53
P               1.61954000     -6.01596000      1.58324000      15
H              -5.94497000     -1.72736000     -1.97057000       1
C              -2.90565000     -5.64882000     -1.53256000       6
C              -2.64101000      2.57125000      5.41367000       6
H               2.62946000     -1.42424000      5.91533000       1
H               1.36623000     -2.69867000      5.89824000       1
I              -4.72587000      0.75481900     -4.74456000      53
H              -4.33402000      3.06591000      4.27552000       1
H              -3.16705000      4.25938000      4.28273000       1
H               6.44302000      1.30414000     -1.86427000       1
I               1.31828000     -6.51987000     -1.62310000      53
I              -0.72900300      4.83834000     -4.80201000      53
I               6.56370000     -1.26285000     -1.56262000      53
C               5.86320000      3.30763000     -1.53256000       6
I              -4.93879000      4.80343000      1.12913000      53
H               4.60135000      3.06591000      4.27552000       1
I               3.95063000     -3.82243000     -4.35837000      53
H              -3.00053000     -4.69707000      4.28273000       1
H              -1.25036000     -6.51413000     -2.46519000       1
H               6.04291000      2.13512000     -3.25284000       1
H               6.35911000      3.36247000     -0.56070700       1
H              -3.96220000     -5.89774000     -1.40979000       1
N               6.50983000      2.23233000     -2.33092000       7
C               1.77111000      6.93759000     -1.95875000       6
H              -7.34253000     -1.13582000     -0.09084890       1
I              -0.29844900      0.23575900      7.42561000      53
H               6.01594000      2.85537000      3.36221000       1
N              -2.25902000     -6.72413000     -2.33092000       7
H               2.63101000     -1.30008000     -6.86868000       1
H               1.36778000     -2.57451000     -6.88577000       1
H              -2.75291000     -6.10108000      3.36221000       1
C              -6.99775000     -2.01886000     -1.95875000       6
H               5.97249000      4.25183000     -2.07086000       1
H              -3.06486000      2.98253000      6.33259000       1
I              -4.98474000     -3.82243000     -4.35837000      53
H               0.02433450      7.62141000     -1.01804000       1
I               3.78411000      5.13402000     -4.35837000      53
H               1.34115000      7.01864000     -2.95981000       1
N               5.63046000      3.22758000      4.25348000       7
H              -7.65348000     -0.10342300     -1.36663000       1
H              -3.06331000      3.10669000     -6.45142000       1
N              -3.13839000     -5.72887000      4.25348000       7
I               5.85011000     -2.12804000      4.76795000      53
H               4.97317000     -5.89774000     -1.40979000       1
N              -7.73233000     -1.09426000     -1.05370000       7
H              -7.10747000     -3.03666000     -1.57730000       1
I               2.20966000     -5.92713000      4.75071000      53
H               1.42633000      7.82064000     -0.09084890       1
H               0.52596100      7.04034000      3.69785000       1
H               0.60641500     -0.54368300     -7.93923000       1
N               1.03652000      7.86220000     -1.05370000       7
H               6.13901000     -4.70462000     -2.07086000       1
H               2.82388000      7.22909000     -1.97057000       1
H              -7.06933000     -0.72668800      3.71215000       1
C               2.05272000     -1.98195000     -7.49627000       6
H              -2.72595000     -6.82134000     -3.25284000       1
P               1.90033000     -6.17363000     -4.85683000      15
I               7.74877000      1.10803000      2.06848000      53
P               6.26420000     -1.73177000     -4.83741000      15
H              -2.82419000      1.62032000     -7.42897000       1
H              -1.56802000      2.90179000     -7.42299000       1
P              -3.12280000      7.38510000      1.61478000      15
I              -1.02008000     -7.84842000      2.06848000      53
P              -7.48235000      2.94050000      1.58324000      15
H               2.55021000      6.19801000      4.71814000       1
H              -2.32583000     -7.65232000     -1.86427000       1
H              -7.42770000     -1.93781000     -2.95981000       1
I              -2.53819000      7.69360000     -1.56262000      53
H               6.10963000      1.49615000      5.35504000       1
H              -6.21864000     -2.75845000      4.71814000       1
C              -2.63946000      2.69541000     -7.37034000       6
H               7.51850000      2.44232000     -2.46519000       1
H              -1.40305000     -6.17882000      5.36102000       1
I              -7.78361000      2.43659000     -1.62310000      53
H               5.76833000      4.25938000      4.28273000       1
H              -4.16750000     -5.89054000      4.27552000       1
C               6.02972000     -5.64882000     -1.53256000       6
I              -5.15126000      5.13402000     -4.35837000      53
P               1.73226000      2.65866000      7.92718000      15
P              -2.67272000     -1.85594000      7.94660000      15
H               6.52563000     -5.59398000     -0.56070700       1
N               1.24850000     -1.17215000     -8.45845000       7
H               1.19971000      6.25778000      5.89824000       1
C               6.29436000      2.57125000      5.41367000       6
H               5.93485000     -4.69707000      4.28273000       1
H               4.76787000     -5.89054000      4.27552000       1
C              -2.47449000     -6.38521000      5.41367000       6
H              -6.30592000     -1.42424000      5.91533000       1
I              -3.08371000     -2.00388000     -8.01606000      53
C               1.88465000      6.85034000      5.28774000       6
N               1.08043000      7.66014000      4.32556000       7
I               2.04470000      3.15349000     -8.03330000      53
I              -6.89223000      3.02932000      4.75071000      53
H              -8.74452000     -1.33504000     -1.01804000       1
H               2.71828000     -2.63428000     -8.06587000       1
N              -7.68842000     -1.29631000      4.32556000       7
C              -6.88420000     -2.10611000      5.28774000       6
I              -3.25178000      6.82841000      4.76795000      53
H               1.11538000      8.85303000     -1.36663000       1
I              -0.56403500     -4.24228000      7.98200000      53
I               4.20795000      0.63065500      8.03945000      53
P              -7.20156000      2.78282000     -4.85683000      15
H               5.87051000      2.98253000      6.33259000       1
P              -2.83769000      7.22468000     -4.83741000      15
H              -2.89834000     -5.97393000      6.33259000       1
H              -2.89679000     -5.84976000     -6.45142000       1
H               1.69953000      8.22976000      3.71215000       1
N               5.79698000     -5.72887000      4.25348000       7
H              -8.24289000     -1.91612000      3.69785000       1
H               5.87206000      3.10669000     -6.45142000       1
H               1.44841000     -9.05988000     -1.36663000       1
H               9.12623000     -1.33504000     -1.01804000       1
H               1.86760000     -0.60252400     -9.07186000       1
H               0.69403100     -1.79195000     -9.08616000       1
I              -0.73055400      4.71417000      7.98200000      53
H               6.18246000     -6.10108000      3.36221000       1
I              -4.72742000      0.63065500      8.03945000      53
H              -6.30436000     -1.30008000     -6.86868000       1
H               1.20126000      6.38194000     -6.88577000       1
I               8.72059000     -3.37792000      1.70123000      53
H              -7.27399000      5.91979000     -1.57730000       1
H               7.36580000      2.77763000      5.36102000       1
P               5.81258000      7.38510000      1.61478000      15
H              -2.65922000     -7.46030000      5.35504000       1
I               3.43867000     -8.77630000      1.64360000      53
P              -7.31583000     -6.01596000      1.58324000      15
H               0.43834600      8.28861000      4.84478000       1
H              -8.33051000     -0.66784700      4.84478000       1
H              -6.11149000      7.22909000     -1.97057000       1
H              -1.40150000     -6.05466000     -7.42299000       1
N              -3.30336000      3.35175000     -8.53052000       7
H               6.11118000      1.62032000     -7.42897000       1
N               6.67635000     -6.72413000     -2.33092000       7
H               6.20942000     -6.82134000     -3.25284000       1
I               3.10563000      9.13661000      1.64360000      53
H               2.46294000      7.53221000      5.91533000       1
I              -9.15015000     -3.37792000      1.70123000      53
H              -7.56915000     -2.69867000      5.89824000       1
C              -2.47294000     -6.26104000     -7.37034000       6
C               6.29591000      2.69541000     -7.37034000       6
H              -4.33247000      3.19007000     -8.50849000       1
H              -6.38516000      6.19801000      4.71814000       1
H              -3.16549000      4.38354000     -8.50128000       1
I               5.68359000      6.82841000      4.76795000      53
I               3.94908000     -3.94660000      8.42564000      53
H              -2.99898000     -4.57291000     -8.50128000       1
I               5.85166000     -2.00388000     -8.01606000      53
I               6.39718000      7.69360000     -1.56262000      53
I              -0.13037900     -8.59653000     -5.35840000      53
I              -6.72571000     -5.92713000      4.75071000      53
