200
cutoff_factor=1.20000000 nneightol=1.20000000 Lattice="28.73118000       0.00000000       0.00000000       0.00000000      29.75964000       0.00000000       0.00000000       0.00000000      29.40743000" Properties=species:S:1:pos:R:3:Z:I:1
I              -0.88126600      0.90722900      0.09054880      53
P               1.64264000     -1.06468000      0.00340217      15
H              -2.61196000     -0.90066600     -1.71706000       1
H               1.34005000      2.73483000     -1.76219000       1
H              -2.79961000     -1.26679000      1.75747000       1
I              -0.26105100     -3.57406000      0.07380480      53
H              -1.50904000     -1.36146000      2.99995000       1
I               1.44179000     -0.92428600     -3.26916000      53
H               1.38574000      2.98460000      1.79165000       1
H               1.25508000      1.76542000     -3.11243000       1
I               3.48217000      1.56412000     -0.15250600      53
I               1.82870000     -0.97906900      3.25295000      53
C              -2.53702000     -1.05336000      2.79596000       6
H              -2.66710000      0.00961768      3.01153000       1
H              -1.15323000     -1.47890000     -3.58369000       1
N               1.11450000      2.73875000     -2.77566000       7
C              -2.95987000     -0.79695400     -2.74715000       6
H               0.11206300      2.99008000     -2.89259000       1
H              -2.80685000      0.22461900     -3.10213000       1
P              -2.82491000      3.42344000     -0.00373260      15
H               0.28566400      3.11514000      3.20295000       1
H               2.13860000      1.61994000      3.64546000       1
N              -2.16472000     -1.72173000     -3.60900000       7
C               1.28149000      3.34518000      2.81746000       6
H              -2.27667000     -2.70813000     -3.30200000       1
H              -4.01369000     -1.07460000     -2.82258000       1
N               2.28889000      2.64915000      3.66811000       7
I               4.19314000     -2.90493000     -0.12011100      53
I              -0.25829500      5.31981000      0.07380480      53
N              -3.44815000     -1.83109000      3.68497000       7
I              -2.49890000      3.47829000     -3.25251000      53
H               3.25845000      2.84037000      3.34554000       1
C               2.00851000      3.69423000     -3.49499000       6
H               1.47101000      4.41996000      2.86539000       1
H              -2.49443000     -1.67078000     -4.59405000       1
I              -4.67578000     -2.90493000     -0.12011100      53
H               1.46825000     -4.47391000      2.86539000       1
H               1.82677000     -4.19603000     -3.10267000       1
I              -3.01117000      3.43525000      3.23558000      53
I              -5.38675000      1.56412000     -0.15250600      53
H              -3.34324000     -2.85138000      3.51208000       1
H               3.04452000      3.39460000     -3.32138000       1
H               4.85523000     -1.07460000     -2.82258000       1
H               4.42595000     -1.57345000      3.52687000       1
H              -4.44297000     -1.57345000      3.52687000       1
H               1.82952000      4.69783000     -3.10267000       1
H              -3.22039000     -1.65734000      4.68449000       1
H               2.22181000      2.97247000      4.65412000       1
H               1.77345000      3.65164000     -4.56046000       1
P              -2.82766000     -5.47043000     -0.00373260      15
H               1.38299000     -5.90927000      1.79165000       1
C               1.27873000     -5.54868000      2.81746000       6
H               6.06932000     -1.26679000      1.75747000       1
H               1.33729000     -6.15904000     -1.76219000       1
H               6.25696000     -0.90066600     -1.71706000       1
C               5.90906000     -0.79695400     -2.74715000       6
H               0.10930800     -5.90379000     -2.89259000       1
C               2.00575000     -5.19964000     -3.49499000       6
H               0.28290900     -5.77872000      3.20295000       1
I              -1.00575000      0.68589000     -6.55480000      53
I              -0.09154190      1.54328000      6.56021000      53
P               1.55639000     -1.25059000      6.48522000      15
I              -2.50166000     -5.41557000     -3.25251000      53
P               1.80976000     -1.03488000     -6.46765000      15
N               5.42077000     -1.83109000      3.68497000       7
H               6.06207000      0.22461900     -3.10213000       1
N               1.11175000     -6.15511000     -2.77566000       7
H               6.20182000      0.00961768      3.01153000       1
P               6.04402000      3.42344000     -0.00373260      15
C               6.33190000     -1.05336000      2.79596000       6
I              -3.01393000     -5.45861000      3.23558000      53
H               3.04176000     -5.49927000     -3.32138000       1
H              -5.61048000      2.84037000      3.34554000       1
H               5.52568000     -2.85138000      3.51208000       1
H               1.77069000     -5.24223000     -4.56046000       1
I              -1.14544000     -2.90269000      6.45576000      53
P              -7.22628000     -1.06468000      0.00340217      15
I               4.19590000      5.98894000     -0.12011100      53
H              -2.27391000      6.18573000     -3.30200000       1
I               0.01769970     -3.69866000     -6.50172000      53
H              -5.82440000      3.39460000     -3.32138000       1
I               5.85776000      3.43525000      3.23558000      53
H               5.64854000     -1.65734000      4.68449000       1
I               3.44229000      1.71103000     -6.49200000      53
N               2.28613000     -6.24472000      3.66811000       7
I              -4.67303000      5.98894000     -0.12011100      53
H               3.25569000     -6.05350000      3.34554000       1
H              -3.34049000      6.04249000      3.51208000       1
P              -2.77522000      3.24527000      6.48011000      15
I               4.30165000      0.58149000      6.44604000      53
P              -2.72480000      3.36313000     -6.46253000      15
N               6.70420000     -1.72173000     -3.60900000       7
I              -7.04023000     -0.97906900      3.25295000      53
H              -6.73033000      1.61994000      3.64546000       1
H               2.21906000     -5.92140000      4.65412000       1
H               6.59225000     -2.70813000     -3.30200000       1
H               1.25232000     -7.12845000     -3.11243000       1
I              -4.56728000      0.58149000      6.44604000      53
I               6.37002000      3.47829000     -3.25251000      53
N              -6.58004000      2.64915000      3.66811000       7
P               1.64540000      7.82918000      0.00340217      15
H               6.37450000     -1.67078000     -4.59405000       1
I              -0.88402200     -7.98664000      0.09054880      53
I               7.98766000      0.90722900      0.09054880      53
H               7.35989000     -1.36146000      2.99995000       1
I               3.47942000     -7.32975000     -0.15250600      53
P               6.04126000     -5.47043000     -0.00373260      15
I              -7.42714000     -0.92428600     -3.26916000      53
I               3.27544000     -3.92783000      6.39296000      53
H              -7.52888000      2.73483000     -1.76219000       1
I              -4.37549000     -2.73687000     -6.38754000      53
H              -1.50628000      7.53240000      2.99995000       1
H              -7.48318000      2.98460000      1.79165000       1
I               4.49343000     -2.73687000     -6.38754000      53
H              -2.79685000      7.62708000      1.75747000       1
N              -2.16197000      7.17213000     -3.60900000       7
H              -1.15048000      7.41497000     -3.58369000       1
I               0.02045530      5.19521000     -6.50172000      53
H               2.13584000     -7.27393000      3.64546000       1
H              -7.61385000      1.76542000     -3.11243000       1
C              -6.86042000      3.69423000     -3.49499000       6
H              -2.60920000      7.99320000     -1.71706000       1
I              -5.42663000      1.71103000     -6.49200000      53
I               5.85500000     -5.45861000      3.23558000      53
H               7.71569000     -1.47890000     -3.58369000       1
H              -6.64711000      2.97247000      4.65412000       1
H              -2.06214000     -1.30768000     -8.29363000       1
H              -5.82716000     -5.49927000     -3.32138000       1
N              -3.44540000      7.06278000      3.68497000       7
N              -7.75442000      2.73875000     -2.77566000       7
C              -2.53427000      7.84051000      2.79596000       6
I               3.27820000      4.96604000      6.39296000      53
I               1.44454000      7.96958000     -3.26916000      53
I               1.83145000      7.91480000      3.25295000      53
C              -7.58744000      3.34518000      2.81746000       6
H              -7.04216000     -4.19603000     -3.10267000       1
I              -1.14268000      5.99118000      6.45576000      53
H               1.36734000      2.95638000     -8.26326000       1
H              -2.81429000     -0.96208300      8.38729000       1
H              -5.61323000     -6.05350000      3.34554000       1
H               5.52844000      6.04249000      3.51208000       1
H              -2.49167000      7.22309000     -4.59405000       1
P              -2.72756000     -5.53074000     -6.46253000      15
H               1.78952000      2.60937000      8.35371000       1
I               6.36727000     -5.41557000     -3.25251000      53
H              -7.03940000      4.69783000     -3.10267000       1
P              -2.77797000     -5.64860000      6.48011000      15
C              -2.95711000      8.09691000     -2.74715000       6
H              -7.39792000      4.41996000      2.86539000       1
I              -5.38951000     -7.32975000     -0.15250600      53
H              -7.40068000     -4.47391000      2.86539000       1
H              -7.09548000      3.65164000     -4.56046000       1
H              -3.21763000      7.23652000      4.68449000       1
H              -4.01094000      7.81926000     -2.82258000       1
H               4.42871000      7.32041000      3.52687000       1
H              -4.44022000      7.32041000      3.52687000       1
C              -6.86317000     -5.19964000     -3.49499000       6
I               8.60787000     -3.57406000      0.07380480      53
I              -5.59348000     -3.92783000      6.39296000      53
P               6.09371000      3.24527000      6.48011000      15
P               6.14412000      3.36313000     -6.46253000      15
H               6.59501000      6.18573000     -3.30200000       1
H              -2.80961000     -8.66925000     -3.10213000       1
H               4.85799000      7.81926000     -2.82258000       1
P              -7.05917000     -1.03488000     -6.46765000      15
N              -1.99506000     -1.63100000     -9.27965000       7
N               5.42353000      7.06278000      3.68497000       7
H              -8.58326000      3.11514000      3.20295000       1
H               1.24449000      1.76234000     -9.43568000       1
H              -8.75686000      2.99008000     -2.89259000       1
H              -7.48594000     -5.90927000      1.79165000       1
N               1.13958000      2.78263000     -9.26278000       7
H              -2.66986000     -8.88425000      3.01153000       1
H              -1.02550000     -1.43978000     -9.60222000       1
H              -2.66434000      8.90348000      3.01153000       1
N              -6.58279000     -6.24472000      3.66811000       7
I              -9.75019000      0.90722900      0.09054880      53
I              -9.12998000     -3.57406000      0.07380480      53
C              -7.59019000     -5.54868000      2.81746000       6
H              -1.54321000     -1.21912000      9.62638000       1
I              -5.59073000      4.96604000      6.39296000      53
I              -0.87851000      9.80109000      0.09054880      53
C              -2.57923000     -0.91949300      9.45277000       6
I              -0.09429760     -7.35059000      6.56021000      53
P              -7.31253000     -1.25059000      6.48522000      15
I               1.57381000     -0.84489400     -9.71218000      53
H              -7.53163000     -6.15904000     -1.76219000       1
I              -4.37274000      6.15699000     -6.38754000      53
H               8.98099000      2.99008000     -2.89259000       1
H               0.14475900      3.04026000     -9.42088000       1
H               6.07208000      7.62708000      1.75747000       1
H              -2.14535000     -2.66021000     -9.30229000       1
N               2.11922000      2.55841000      9.33876000       7
I               1.78229000     -1.13543000      9.69525000      53
H              -7.09823000     -5.24223000     -4.56046000       1
I               4.49619000      6.15699000     -6.38754000      53
H               2.00728000      1.57201000      9.64576000       1
H              -2.80410000      9.11848000     -3.10213000       1
H              -6.64987000     -5.92140000      4.65412000       1
P               1.63989000     -9.95855000      0.00340217      15
