200
cutoff_factor=1.20000000 nneightol=1.20000000 Lattice="28.57942000       0.00000000       0.00000000       0.00000000      28.50418000       0.00000000       0.00000000       0.00000000      29.34142000" Properties=species:S:1:pos:R:3:Z:I:1
I              -1.95144000      0.74614300     -0.05515150      53
H              -0.12346200     -1.09937000      1.80704000       1
H               0.03456240     -1.05885000     -1.84374000       1
C              -0.19930600     -0.90917200     -2.90023000       6
I               2.61608000      1.56208000     -0.09420620      53
C              -0.30578500     -1.33035000      2.85896000       6
H               0.05298020      0.10855700     -3.20675000       1
P              -0.06863820      3.33768000      0.01543140      15
I               1.76589000     -2.96899000      0.06418570      53
H              -1.25492000     -1.11562000     -3.09107000       1
H              -1.33060000     -1.07149000      3.13466000       1
H               0.46820700      0.50328500      3.54257000       1
N               0.62786600     -0.51342100      3.69049000       7
H              -0.11101800     -2.38682000      3.05712000       1
H               1.62208000     -0.73438100      3.47474000       1
N               0.61910000     -1.85910000     -3.70288000       7
H               1.63380000     -1.68977000     -3.54765000       1
H               0.40551900     -2.84503000     -3.44838000       1
P               4.36694000     -1.15058000     -0.00348740      15
I               0.14952300      3.17063000      3.21799000      53
I              -2.71452000     -3.80731000      0.12891800      53
P              -4.53578000     -1.15058000     -0.00348740      15
I              -0.12838500      3.48893000     -3.19289000      53
H               0.47479000     -0.70831800      4.69834000       1
H              -3.28180000      2.39630000     -2.81330000       1
H              -3.19381000      2.31338000      3.01197000       1
H               3.61609000      2.83176000      1.90085000       1
H               0.41593400     -1.74259000     -4.71451000       1
H               4.17287000      2.46779000     -1.94490000       1
I               4.23969000     -1.07141000      3.21056000      53
I               4.22235000     -1.24105000     -3.20741000      53
H              -3.65794000      3.74933000     -1.89570000       1
P               0.00663416     -5.59562000      0.01543140      15
N              -4.05362000      3.01525000     -2.51947000       7
H              -4.72984000      2.46779000     -1.94490000       1
I              -4.66303000     -1.07141000      3.21056000      53
I              -4.68036000     -1.24105000     -3.20741000      53
I              -2.78979000      5.12598000      0.12891800      53
N               4.02291000      3.50886000      2.58077000       7
H               3.23891000      3.99250000      3.04635000       1
C              -3.99797000      2.80781000      3.56171000       6
I               1.69061000      5.96431000      0.06418570      53
N               4.84910000      3.01525000     -2.51947000       7
H              -5.28663000      2.83176000      1.90085000       1
H               4.30572000      2.07236000      4.10140000       1
I              -0.05311230     -5.44436000     -3.19289000      53
H              -4.32808000      4.19067000      2.01900000       1
H               3.77334000      2.81358000     -4.32190000       1
H               3.37886000      4.27384000     -3.35613000       1
I              -6.28663000      1.56208000     -0.09420620      53
H              -4.59699000      2.07236000      4.10140000       1
H               4.57464000      4.19067000      2.01900000       1
N              -4.87980000      3.50886000      2.58077000       7
H              -3.58267000     -5.18396000     -1.89570000       1
H              -3.58953000      3.54900000      4.24903000       1
I               0.22479500     -5.76266000      3.21799000      53
I              -1.82590000      0.71528900      6.31784000      53
C               4.18015000      3.61914000     -3.70617000       6
C               4.90474000      2.80781000      3.56171000       6
H              -4.25281000     -4.74262000      2.01900000       1
H               3.31418000     -4.94079000      3.04635000       1
I               1.69031000      0.67895900     -6.43622000      53
H               3.45413000     -4.65945000     -3.35613000       1
H               5.24478000      3.74933000     -1.89570000       1
H               5.62091000      2.39630000     -2.81330000       1
H               5.70891000      2.31338000      3.01197000       1
H               4.64991000     -4.74262000      2.01900000       1
I               6.95128000      0.74614300     -0.05515150      53
H               0.33024700      6.08827000     -3.44838000       1
C              -4.72257000      3.61914000     -3.70617000       6
I              -2.81729000      1.60316000     -6.35860000      53
H              -3.98042000      4.19084000     -4.26824000       1
I               2.67080000      1.54273000      6.51128000      53
P              -0.12715700      3.27915000     -6.43456000      15
H              -0.18629000      6.54648000      3.05712000       1
I              -1.87585000     -2.91455000     -6.36067000      53
I               6.18820000     -3.80731000      0.12891800      53
N               4.09818000     -5.42444000      2.58077000       7
H              -5.12938000      2.81358000     -4.32190000       1
P               0.04832630      3.39846000      6.45022000      15
I               1.80464000     -2.87286000      6.51335000      53
H               3.69136000     -6.10154000      1.90085000       1
H              -3.90515000     -4.74246000     -4.26824000       1
N              -3.97834000     -5.91805000     -2.51947000       7
H              -5.66381000      3.99250000      3.04635000       1
H               5.32005000     -5.18396000     -1.89570000       1
H               5.31318000      3.54900000      4.24903000       1
N              -4.80453000     -5.42444000      2.58077000       7
H              -3.51426000     -5.38429000      4.24903000       1
I              -7.13683000     -2.96899000      0.06418570      53
H               4.92230000      4.19084000     -4.26824000       1
H              -5.52385000      4.27384000     -3.35613000       1
C               4.25542000     -5.31416000     -3.70617000       6
H              -3.20653000     -6.53699000     -2.81330000       1
I               2.69136000     -7.37122000     -0.09420620      53
P               4.40439000     -1.05881000     -6.42173000      15
P              -4.40795000     -1.19687000      6.43739000      15
I              -2.59049000     -3.79706000      6.43573000      53
P              -4.49832000     -1.05881000     -6.42173000      15
H              -3.11854000     -6.61992000      3.01197000       1
H              -5.44858000     -4.65945000     -3.35613000       1
P               4.49477000     -1.19687000      6.43739000      15
I               2.53017000     -3.74199000     -6.55411000      53
C              -4.64730000     -5.31416000     -3.70617000       6
H               4.24814000     -6.46550000     -1.94490000       1
I               6.11292000      5.12598000      0.12891800      53
N               0.54382800      7.07420000     -3.70288000       7
H              -0.19873500      7.83392000      1.80704000       1
H              -5.58854000     -4.94079000      3.04635000       1
H              -0.04071000      7.87445000     -1.84374000       1
C              -3.92270000     -6.12548000      3.56171000       6
N               4.92437000     -5.91805000     -2.51947000       7
H              -7.28063000     -0.73438100      3.47474000       1
H               4.99757000     -4.74246000     -4.26824000       1
C              -0.38105700      7.60295000      2.85896000       6
H              -4.65457000     -6.46550000     -1.94490000       1
H               1.55853000      7.24352000     -3.54765000       1
H              -5.21136000     -6.10154000      1.90085000       1
H              -7.26892000     -1.68977000     -3.54765000       1
H               7.57211000     -1.07149000      3.13466000       1
H               7.64780000     -1.11562000     -3.09107000       1
I              -1.87617000     -8.18715000     -0.05515150      53
H               3.84861000     -6.11972000     -4.32190000       1
P               0.12359900     -5.53483000      6.45022000      15
H              -1.33019000      7.81768000     -3.09107000       1
C              -0.27457800      8.02412000     -2.90023000       6
P              -0.05188510     -5.65415000     -6.43456000      15
H              -1.40587000      7.86180000      3.13466000       1
H               0.34066200      7.19071000     -4.71451000       1
H               0.64150300     -0.28517800      8.60371000       1
I              -2.66576000      5.13624000      6.43573000      53
C               4.98002000     -6.12548000      3.56171000       6
H               0.76653200     -0.90827600     -8.62292000       1
I               2.45490000      5.19130000     -6.55411000      53
H               5.38846000     -5.38429000      4.24903000       1
H              -0.50745700     -1.66244000      8.55005000       1
P               4.29167000      7.78271000     -0.00348740      15
I               6.08543000      1.60316000     -6.35860000      53
I              -1.95112000      6.01874000     -6.36067000      53
H               8.77925000     -1.09937000      1.80704000       1
H              -5.05411000     -6.11972000     -4.32190000       1
H               1.54681000      8.19891000      3.47474000       1
P              -4.61105000      7.78271000     -0.00348740      15
I               1.72936000      6.06044000      6.51335000      53
N              -8.27485000     -0.51342100      3.69049000       7
H              -0.24092800     -2.38492000     -8.77055000       1
H               4.38100000     -6.86093000      4.10140000       1
H               5.69619000     -6.53699000     -2.81330000       1
H              -8.86815000     -1.05885000     -1.84374000       1
I              -6.23191000      1.54273000      6.51128000      53
C               8.59693000     -1.33035000      2.85896000       6
H               0.54347900     -8.43001000      3.54257000       1
H              -8.43451000      0.50328500      3.54257000       1
H              -4.52172000     -6.86093000      4.10140000       1
H               8.93728000     -1.05885000     -1.84374000       1
C              -0.10064500     -0.85687800      9.16578000       6
N               0.55259300      8.41987000      3.69049000       7
C               8.70341000     -0.90917200     -2.90023000       6
N              -8.28362000     -1.85910000     -3.70288000       7
H              -9.02618000     -1.09937000      1.80704000       1
H               5.78418000     -6.61992000      3.01197000       1
I               4.14708000      7.69224000     -3.20741000      53
I              -7.21210000      5.96431000      0.06418570      53
H               0.12825300     -8.82474000     -3.20675000       1
H              -8.84974000      0.10855700     -3.20675000       1
P               8.83408000      3.33768000      0.01543140      15
H              -3.94013000      2.71469000      8.15744000       1
I               4.16442000      7.86189000      3.21056000      53
C               0.35809300     -1.64947000     -9.31024000       6
H               0.39951800      8.22498000      4.69834000       1
H               8.95570000      0.10855700     -3.20675000       1
I               7.07682000      0.71528900      6.31784000      53
H              -0.90193100     -0.20217500      9.51582000       1
P              -8.97135000      3.33768000      0.01543140      15
H              -0.02229210      9.04185000     -3.20675000       1
I              -4.75563000      7.69224000     -3.20741000      53
C              -9.10202000     -0.90917200     -2.90023000       6
H              -8.49720000     -2.84503000     -3.44838000       1
H               8.79170000     -2.38682000      3.05712000       1
I              -6.21136000     -7.37122000     -0.09420620      53
H              -8.42793000     -0.70831800      4.69834000       1
I              -7.21241000      0.67895900     -6.43622000      53
I              -4.73830000      7.86189000      3.21056000      53
C              -9.20850000     -1.33035000      2.85896000       6
I               6.31223000     -3.79706000      6.43573000      53
H              -9.01373000     -2.38682000      3.05712000       1
I              -8.75319000      3.17063000      3.21799000      53
H              -8.48678000     -1.74259000     -4.71451000       1
I              -6.37255000     -3.74199000     -6.55411000      53
I              -2.02671000      9.67944000     -0.05515150      53
H              -4.14713000      3.76770000     -8.17361000       1
I               7.02687000     -2.91455000     -6.36067000      53
H              -1.30775000     -0.46477600     -9.82560000       1
H               4.96259000      2.71469000      8.15744000       1
I               8.77433000      3.48893000     -3.19289000      53
H               9.37092000      0.50328500      3.54257000       1
I              -7.09808000     -2.87286000      6.51335000      53
I              -2.74202000     -7.33014000     -6.35860000      53
H               0.39293500      9.43658000      3.54257000       1
H              -2.72227000      2.76751000      9.32430000       1
