200
cutoff_factor=1.20000000 nneightol=1.20000000 Lattice="29.43474000       0.00000000       0.00000000       0.00000000      28.44455000       0.00000000       0.00000000       0.00000000      28.89297000" Properties=species:S:1:pos:R:3:Z:I:1
H              -0.36791900      0.37063400     -0.70246600       1
C              -0.93861700     -0.55983700     -0.68642100       6
H              -1.22862000     -0.81364700      0.33438900       1
H               0.78715700     -1.77700000     -0.65201800       1
N              -0.07189270     -1.65431000     -1.21509000       7
H              -1.82051000     -0.47718700     -1.32586000       1
H               0.23451400     -1.45430000     -2.19251000       1
I               1.20834000      2.29601000      1.03124000      53
H              -0.60159100     -2.55016000     -1.26632000       1
H              -0.85968500      2.26615000      3.04823000       1
I               3.68604000     -1.04257000     -0.74099200      53
I              -2.40766000     -0.76299900      3.02108000      53
I              -0.23030100      2.49881000     -3.21728000      53
I               2.00679000     -1.44480000      3.46247000      53
I              -3.24711000      2.83230000      0.27967700      53
H               2.37382000      2.29433000     -2.79411000       1
P               3.79468000      0.65689700      1.99162000      15
H               3.54380000      1.15808000     -2.34824000       1
P              -0.51994100      4.37159000     -0.64934600      15
N               3.38975000      2.15103000     -2.61516000       7
H               3.68145000      2.72509000     -1.80187000       1
N              -1.12329000      2.84772000      3.86741000       7
I               1.38525000     -1.60436000     -4.46395000      53
I              -5.16844000     -1.04257000     -0.74099200      53
H              -2.13567000      2.70724000      4.06452000       1
I              -2.20626000     -4.41327000     -2.06947000      53
H              -0.96104000      3.84036000      3.60466000       1
I              -0.76972100     -4.92229000      2.05243000      53
P              -0.57492600     -2.87975000      4.54914000      15
H              -0.49148000      1.40432000      5.26903000       1
P              -5.05980000      0.65689700      1.99162000      15
H               0.75986900      2.59611000      4.78291000       1
I              -3.01274000     -0.77672300     -4.63773000      53
H              -3.60098000      2.37319000     -3.58122000       1
C              -0.29186200      2.45377000      5.04158000       6
I               2.21949000     -5.10425000     -1.59252000      53
H               3.31532000     -3.88047000      2.76976000       1
H              -5.31069000      1.15808000     -2.34824000       1
H              -3.62123000     -4.49854000      1.41432000       1
P              -0.48547300      0.67118000     -5.92918000      15
P               4.04167000     -3.01749000     -3.29653000      15
H               3.80403000     -4.74395000      0.52061500       1
H              -5.17303000      2.72509000     -1.80187000       1
C               4.19635000      2.50942000     -3.82028000       6
I               5.60737000      2.83230000      0.27967700      53
H               3.90450000      1.84905000     -4.63939000       1
H              -0.40667100     -4.38569000     -4.59119000       1
N              -5.46473000      2.15103000     -2.61516000       7
I              -0.83932800      6.10265000      2.05243000      53
I               2.14989000      5.92069000     -1.59252000      53
C              -4.65813000      2.50942000     -3.82028000       6
H               2.56626000      5.50830000      2.48449000       1
P              -4.81281000     -3.01749000     -3.29653000      15
H               2.63587000     -5.51664000      2.48449000       1
C               3.55086000     -4.93221000      2.60549000       6
H              -0.56573000      3.08832000      5.88713000       1
I               4.10090000      2.62669000      4.56551000      53
H              -4.29272000      4.99294000      1.17209000       1
P              -0.45033400     -6.65335000     -0.64934600      15
H               3.99257000      3.55146000     -4.07620000       1
H               5.25350000      2.37319000     -3.58122000       1
N               4.35498000     -5.04315000      1.35148000       7
H               4.56176000      4.99294000      1.17209000       1
N              -4.49950000     -5.04315000      1.35148000       7
H              -5.05046000     -4.74395000      0.52061500       1
H              -4.94998000      1.84905000     -4.63939000       1
H               5.23325000     -4.49854000      1.41432000       1
I              -4.75358000      2.62669000      4.56551000      53
I               6.44682000     -0.76299900      3.02108000      53
H               7.03398000     -0.47718700     -1.32586000       1
H               3.81505000     -1.70188000      5.83893000       1
H              -0.40202800      4.95525000     -5.20928000       1
H              -4.86191000      3.55146000     -4.07620000       1
I              -2.27587000      6.61167000     -2.06947000      53
H              -5.53916000     -3.88047000      2.76976000       1
H               3.73442000      6.28099000      0.52061500       1
I              -0.31975400     -1.05212000      7.26103000      53
C              -0.13280200     -5.02024000     -5.43673000       6
H              -6.48066000      2.29433000     -2.79411000       1
H              -4.22312000     -6.03200000      1.17209000       1
N               4.28537000      5.98179000      1.35148000       7
C               3.48125000      6.09273000      2.60549000       6
H               3.90312000      0.00053309      6.40211000       1
I               5.84174000     -0.77672300     -4.63773000      53
H               0.91892800     -4.87790000     -5.69540000       1
H               4.14647000     -5.32315000      3.43281000       1
I               2.09624000      2.10613000     -7.01584000      53
H              -3.69084000      6.52640000      1.41432000       1
N              -4.56911000      5.98179000      1.35148000       7
H               7.62586000     -0.81364700      0.33438900       1
H               4.63136000     -6.03200000      1.17209000       1
C              -5.30362000     -4.93221000      2.60549000       6
H               4.07686000      5.70179000      3.43281000       1
I              -6.84769000     -1.44480000      3.46247000      53
H              -0.80198100     -3.63365000     -6.87366000       1
C               4.10690000     -1.04151000      6.65804000       6
H              -4.70801000     -5.32315000      3.43281000       1
H              -5.03943000     -1.70188000      5.83893000       1
I              -3.10219000     -4.32765000      5.84058000      53
H              -3.69043000     -1.17774000      6.89709000       1
C               7.91587000     -0.55983700     -0.68642100       6
H              -0.33242100     -6.06969000     -5.20928000       1
I               1.29580000     -5.15529000      6.01436000      53
I              -7.64614000      2.29601000      1.03124000      53
H              -0.47627800      6.63925000     -4.59119000       1
H              -0.89143300     -7.18458000      3.60466000       1
H              -4.95136000      0.00053309      6.40211000       1
C              -0.20240900      6.00470000     -5.43673000       6
H               2.28437000     -1.25660000      7.68420000       1
H              -5.12006000      6.28099000      0.52061500       1
N              -0.96423400     -4.62629000     -6.61091000       7
H              -4.77762000      5.70179000      3.43281000       1
H              -1.97661000     -4.76677000     -6.41379000       1
C              -4.74758000     -1.04151000      6.65804000       6
I               6.64822000     -4.41327000     -2.06947000      53
H              -8.06732000     -1.77700000     -0.65201800       1
I              -2.31821000      2.78793000     -7.45723000      53
H               6.71881000      2.70724000      4.06452000       1
H               3.24571000      7.14447000      2.76976000       1
H               4.23592000     -1.77222000     -7.04550000       1
H               0.84932100      6.14704000     -5.69540000       1
H               3.40477000     -0.32953600     -7.70855000       1
H               5.16364000      6.52640000      1.41432000       1
I               1.22619000      5.86965000      6.01436000      53
I              -6.63499000     -5.10425000     -1.59252000      53
H               8.48656000      0.37063400     -0.70246600       1
C              -5.37323000      6.09273000      2.60549000       6
I              -0.68026900     -1.37136000     -8.42588000      53
H              -0.67119800      8.47478000     -1.26632000       1
H              -4.61856000     -1.77222000     -7.04550000       1
N               3.30030000     -1.39990000      7.86315000       7
H               2.72532000     -1.96571000     -7.99382000       1
H              -6.21862000     -5.51664000      2.48449000       1
H               5.16405000     -1.17774000      6.89709000       1
H              -6.28822000      5.50830000      2.48449000       1
H               8.25289000     -2.55016000     -1.26632000       1
I               4.25996000     -4.84732000     -5.91281000      53
C               3.64031000     -1.38128000     -7.87282000       6
I              -3.17751000     -8.19265000      0.27967700      53
I              -7.46923000     -1.60436000     -4.46395000      53
H               7.99480000      2.26615000      3.04823000       1
I               1.27795000     -8.72893000      1.03124000      53
I              -4.59452000     -4.84732000     -5.91281000      53
H              -8.61997000     -1.45430000     -2.19251000       1
N               8.78259000     -1.65431000     -1.21509000       7
I              -6.70460000      5.92069000     -1.59252000      53
H              -0.70062500     -5.20786000     -7.43008000       1
N               7.73119000      2.84772000      3.86741000       7
N              -1.05369000     -8.17722000      3.86741000       7
I              -0.16069400     -8.52613000     -3.21728000      53
H               3.45434000     -2.39285000      8.13007000       1
N              -8.92637000     -1.65431000     -1.21509000       7
H              -2.04622000      6.25817000     -6.41379000       1
I              -2.36532000      3.06074000      8.40885000      53
H              -9.22240000      0.37063400     -0.70246600       1
N              -1.03384000      6.39865000     -6.61091000       7
I               5.75229000     -4.32765000      5.84058000      53
H               3.75106000     -8.29985000     -1.80187000       1
H               0.71755000      9.24794000     -0.65201800       1
P               3.88261000      4.45652000      7.18179000      15
H              -0.79007700     -8.75880000      3.04823000       1
P              -0.64453300      8.14519000      4.54914000      15
I               2.06043000      2.36976000      8.88580000      53
H               3.59200000     -0.82583800      8.67644000       1
H               4.06218000     -7.47348000     -4.07620000       1
P               8.33454000      4.37159000     -0.64934600      15
I              -3.17180000      6.69729000      5.84058000      53
H              -5.44971000     -0.32953600     -7.70855000       1
N              -0.14150000      9.37063000     -1.21509000       7
H               9.08900000     -1.45430000     -2.19251000       1
H              -0.77023200      5.81708000     -7.43008000       1
H              -2.06606000     -8.31770000      4.06452000       1
H               2.44343000     -8.73061000     -2.79411000       1
H               7.89344000      3.84036000      3.60466000       1
H              -5.60877000      7.14447000      2.76976000       1
I               4.19035000      6.17762000     -5.91281000      53
P               3.97207000      8.00745000     -3.29653000      15
I               8.62418000      2.49881000     -3.21728000      53
C              -5.21417000     -1.38128000     -7.87282000       6
I               6.57861000      6.61167000     -2.06947000      53
H               0.14506100     -5.00523000      8.28580000       1
I               8.08476000     -4.92229000      2.05243000      53
H               0.82947600     -8.42883000      4.78291000       1
N              -5.55418000     -1.39990000      7.86315000       7
I              -4.66413000      6.17762000     -5.91281000      53
H              -8.09461000      2.59611000      4.78291000       1
H              -4.79230000     -7.47348000     -4.07620000       1
H              -3.53178000     -0.94761500     -9.06400000       1
P              -4.97187000      4.45652000      7.18179000      15
H               0.16490700      9.57064000     -2.19251000       1
H               9.64164000     -1.77700000     -0.65201800       1
C              -9.79310000     -0.55983700     -0.68642100       6
H              -9.45607000     -2.55016000     -1.26632000       1
P               8.27956000     -2.87975000      4.54914000      15
N               3.45936000     -8.87391000     -2.61516000       7
P              -0.60939400      0.82066300      9.82897000      15
H              -0.49612300     -7.93662000      5.88713000       1
H              -5.10342000     -8.29985000     -1.80187000       1
P              -4.88242000      8.00745000     -3.29653000      15
C              -0.22225500     -8.57117000      5.04158000       6
