200
cutoff_factor=1.20000000 nneightol=1.20000000 Lattice="28.95627000       0.00000000       0.00000000       0.00000000      28.90177000       0.00000000       0.00000000       0.00000000      29.37207000" Properties=species:S:1:pos:R:3:Z:I:1
H               0.64822600      0.11879600      1.86109000       1
I               1.65637000     -1.23707000     -0.04155720      53
H              -0.42552800      1.39721000      1.88468000       1
H               0.60269300     -0.56038400     -2.47315000       1
N               0.25807800      0.87013800      2.47233000       7
H              -0.34530900      1.67694000     -2.38877000       1
I              -1.90058000      2.39215000      0.04644990      53
H               1.03383000      1.49781000      2.72712000       1
N               0.67657200      0.07105350     -3.29489000       7
I              -2.78125000     -2.08798000      0.06746850      53
C              -0.40749600      1.09659000     -3.31116000       6
H              -1.19613000     -0.36057800      3.37902000       1
H               1.62037000      0.50198100     -3.23975000       1
H              -1.37029000      0.58525000     -3.38008000       1
C              -0.38858500      0.30514000      3.69216000       6
P              -0.20739400     -3.91168000      0.00728181      15
I               2.55580000      3.25259000     -0.03790690      53
H               0.67857900     -0.49744700     -4.16799000       1
H               0.36427500     -0.24792300      4.25858000       1
P               4.42566000      0.53906400      0.00456212      15
H              -0.78379300      1.13069000      4.28870000       1
H              -0.25319900      1.74361000     -4.17684000       1
P              -4.51560000      0.53906400      0.00456212      15
I              -0.02004870     -3.85774000     -3.19796000      53
P              -0.18446100      5.10645000      0.00728181      15
I              -0.01615110     -4.01360000      3.17927000      53
I               4.18685000      0.68909900      3.18025000      53
I               4.24383000      0.62762600     -3.19854000      53
I              -4.69743000      0.62762600     -3.19854000      53
H              -4.39051000     -2.80886000     -2.37347000       1
I              -4.75441000      0.68909900      3.18025000      53
H               2.60629000     -4.00323000     -3.24598000       1
H               4.55075000     -2.80886000     -2.37347000       1
H              -3.27916000     -3.82650000      3.00825000       1
H               4.37631000     -2.57628000      2.94409000       1
H               3.59916000      3.98792000     -2.38030000       1
I               0.00678151      5.00453000      3.17927000      53
H               3.59526000      4.28740000      2.13239000       1
H              -4.56495000     -2.57628000      2.94409000       1
I               0.00288390      5.16039000     -3.19796000      53
H              -3.33975000     -3.96124000     -3.26357000       1
H               2.75649000     -4.28597000      3.52106000       1
I               2.53287000     -5.76553000     -0.03790690      53
H               3.57233000     -4.73073000      2.13239000       1
C              -4.29735000     -3.43574000     -3.26247000       6
H               3.98752000      3.55572000      3.58601000       1
C              -4.23564000     -3.50096000      3.42333000       6
I               6.16001000     -2.08798000      0.06746850      53
H               2.77942000      4.73216000      3.52106000       1
H               2.62922000      5.01489000     -3.24598000       1
N               3.54569000     -4.44690000     -3.24189000       7
N               3.71095000      4.45685000      3.15449000       7
H               3.57622000     -5.03021000     -2.38030000       1
C               4.64391000     -3.43574000     -3.26247000       6
N               3.56863000      4.57123000     -3.24189000       7
N               3.68802000     -4.56127000      3.15449000       7
H              -4.40523000     -2.83167000     -4.16529000       1
H               3.59557000      3.95319000     -4.07758000       1
H               4.53603000     -2.83167000     -4.16529000       1
I               1.77423000     -1.33500000     -6.40880000      53
C               4.70562000     -3.50096000      3.42333000       6
H              -3.25622000      5.19162000      3.00825000       1
H              -3.31682000      5.05688000     -3.26357000       1
I              -1.92351000     -6.62597000      0.04644990      53
I              -2.17132000     -1.45473000      6.42660000      53
H              -4.15661000     -3.36431000      4.50435000       1
I               1.69136000      2.44690000      6.38788000      53
H              -4.95374000      3.55572000      3.58601000       1
H              -5.34210000      3.98792000     -2.38030000       1
I               2.31254000     -2.05194000      6.38873000      53
I              -6.38546000      3.25259000     -0.03790690      53
H              -5.34599000      4.28740000      2.13239000       1
I              -2.03579000      2.53637000     -6.42238000      53
I              -2.67990000     -1.98291000     -6.42323000      53
H               4.78465000     -3.36431000      4.50435000       1
I              -7.28489000     -1.23707000     -0.04155720      53
H               3.57264000     -5.06494000     -4.07758000       1
I               7.04068000      2.39215000      0.04644990      53
I              -2.75832000      6.93014000      0.06746850      53
H               5.66210000     -3.82650000      3.00825000       1
H              -5.36893000     -4.73073000      2.13239000       1
I               2.42161000      3.13358000     -6.38451000      53
P              -0.20087000     -4.01808000      6.36775000      15
P              -0.17798000     -3.93315000     -6.43816000      15
N              -5.23031000      4.45685000      3.15449000       7
H               5.60151000     -3.96124000     -3.26357000       1
N              -5.25324000     -4.56127000      3.15449000       7
I              -2.79577000      3.09482000      6.40230000      53
H               3.96458000     -5.46240000      3.58601000       1
P               4.19328000      0.49666900      6.37295000      15
N              -5.39557000     -4.44690000     -3.24189000       7
H              -0.36824200     -7.34119000     -2.38877000       1
H              -5.36504000     -5.03021000     -2.38030000       1
C              -4.21271000      5.51716000      3.42333000       6
C              -4.27442000      5.58239000     -3.26247000       6
N              -5.37263000      4.57123000     -3.24189000       7
H              -5.34569000      3.95319000     -4.07758000       1
P               4.39206000      0.57023200     -6.44336000      15
H              -0.44846100     -7.62091000      1.88468000       1
P              -4.54920000      0.57023200     -6.44336000      15
H              -4.36758000      6.20926000     -2.37347000       1
I               1.67930000      7.78105000     -0.04155720      53
P              -4.74798000      0.49666900      6.37295000      15
C               4.66684000      5.58239000     -3.26247000       6
H              -7.32089000      0.50198100     -3.23975000       1
C               4.72855000      5.51716000      3.42333000       6
H               1.01090000     -7.52031000      2.72712000       1
H               4.57368000      6.20926000     -2.37347000       1
P              -0.17793700      5.00005000      6.36775000      15
H              -6.33497000     -4.00323000     -3.24598000       1
P              -0.15504700      5.08498000     -6.43816000      15
H              -4.97667000     -5.46240000      3.58601000       1
H               5.62444000      5.05688000     -3.26357000       1
H               5.68504000      5.19162000      3.00825000       1
H              -6.18477000     -4.28597000      3.52106000       1
H               7.57097000      0.58525000     -3.38008000       1
H              -4.13368000      5.65382000      4.50435000       1
H               4.39924000      6.44185000      2.94409000       1
H              -0.27613200     -7.27452000     -4.17684000       1
H               0.43632100      1.22400000     -8.30675000       1
H              -4.54202000      6.44185000      2.94409000       1
H              -5.36862000     -5.06494000     -4.07758000       1
H               7.74513000     -0.36057800      3.37902000       1
H              -7.90743000      1.49781000      2.72712000       1
H              -8.29303000      0.11879600      1.86109000       1
N               0.23514500     -8.14799000      2.47233000       7
H              -6.16183000      4.73216000      3.52106000       1
C              -0.43042900     -7.92153000     -3.31116000       6
I              -6.40839000     -5.76553000     -0.03790690      53
H              -4.38230000      6.18645000     -4.16529000       1
H               4.80758000      5.65382000      4.50435000       1
H              -6.31204000      5.01489000     -3.24598000       1
H              -8.33857000     -0.56038400     -2.47315000       1
H               4.55896000      6.18645000     -4.16529000       1
H              -0.03397210      1.59814000      8.64582000       1
H              -0.99736100     -0.63512100      8.73353000       1
H               8.51573000      1.39721000      1.88468000       1
H               0.62562500      8.45774000     -2.47315000       1
N              -8.26469000      0.07105350     -3.29489000       7
I               2.39867000     -5.88455000     -6.38451000      53
H              -0.80672600     -7.88744000      4.28870000       1
N              -8.68318000      0.87013800      2.47233000       7
H               8.59595000      1.67694000     -2.38877000       1
H               0.62529300     -8.89933000      1.86109000       1
I              -2.81870000     -5.92331000      6.40230000      53
I               6.26136000     -1.98291000     -6.42323000      53
H              -1.39322000     -8.43287000     -3.38008000       1
C               8.53376000      1.09659000     -3.31116000       6
H               1.59743000     -8.51614000     -3.23975000       1
H              -8.26268000     -0.49744700     -4.16799000       1
H              -0.38374300     -0.87409600     -9.22509000       1
H               8.15747000      1.13069000      4.28870000       1
I               6.18294000      6.93014000      0.06746850      53
I               1.66842000     -6.57122000      6.38788000      53
C               8.55267000      0.30514000      3.69216000       6
H               0.67115800      9.13692000      1.86109000       1
I              -2.05872000     -6.48176000     -6.42238000      53
H              -1.17320000      8.65755000      3.37902000       1
I               6.14549000      3.09482000      6.40230000      53
H              -1.59184000      0.30233900     -9.29005000       1
I              -6.62872000     -2.05194000      6.38873000      53
I               6.76993000     -1.45473000      6.42660000      53
C               0.35728900      1.08735000     -9.38778000       6
C              -0.41151800     -8.71298000      3.69216000       6
H               0.70151200      8.52068000     -4.16799000       1
P               4.40273000     -8.47906000      0.00456212      15
N               0.65363900     -8.94707000     -3.29489000       7
N               9.19934000      0.87013800      2.47233000       7
P               8.73386000     -3.91168000      0.00728181      15
H              -8.57698000     -0.24792300      4.25858000       1
C               0.07390780      0.99408200      9.54863000       6
H               1.03151000      0.46857700      9.54753000       1
P              -4.53853000     -8.47906000      0.00456212      15
N              -1.02431000     -0.01707830      9.56922000       7
I              -6.51965000      3.13358000     -6.38451000      53
I               7.01775000     -6.62597000      0.04644990      53
H              -9.36679000      1.39721000      1.88468000       1
N              -0.66031100      0.02703260     -9.65661000       7
N               0.69950500      9.08918000     -3.29489000       7
I              -7.16703000     -1.33500000     -6.40880000      53
H              -9.28657000      1.67694000     -2.38877000       1
I               2.33547000      6.96618000      6.38873000      53
H               0.38720700      8.77020000      4.25858000       1
I               6.90547000      2.53637000     -6.42238000      53
H               9.58948000      0.11879600      1.86109000       1
H              -1.96371000      0.42658400      9.56513000       1
H               8.68806000      1.74361000     -4.17684000       1
I               4.16392000     -8.32902000      3.18025000      53
H               9.54395000     -0.56038400     -2.47315000       1
I              -2.65697000      7.03521000     -6.42323000      53
H               3.78621000     -3.29913000     -8.52241000       1
H               0.57976000     -9.57851000     -2.47315000       1
H               1.31378000      0.76180700     -9.80285000       1
I               4.22090000     -8.39050000     -3.19854000      53
P              -9.14865000     -3.91168000      0.00728181      15
I              -7.24990000      2.44690000      6.38788000      53
H               4.09513000     -2.84470000      8.63427000       1
C              -9.34875000      1.09659000     -3.31116000       6
C              -0.36565300      9.32326000      3.69216000       6
C              -9.32984000      0.30514000      3.69216000       6
