200
cutoff_factor=1.20000000 nneightol=1.20000000 Lattice="28.29856000       0.00000000       0.00000000       0.00000000      28.63161000       0.00000000       0.00000000       0.00000000      28.48556000" Properties=species:S:1:pos:R:3:Z:I:1
I              -0.18326600     -0.75254200      0.15255600      53
P               1.80006000      1.69285000      0.42949900      15
H              -2.26259000      1.27343000      0.30377300       1
H              -0.28097600     -0.74725800     -2.80798000       1
H               2.21998000     -2.49579000     -0.48685600       1
C              -3.29987000      1.49165000      0.04533350       6
C               0.26681600     -1.10589000     -3.68129000       6
I               0.07711810      3.53475000     -1.55249000      53
P              -1.83294000     -3.41700000      0.42295600      15
H              -3.89087000      0.57344800      0.01306170       1
H               1.28554000     -0.71329400     -3.68411000       1
H              -3.35116000      2.01575000     -0.91080600       1
H               0.15772200      0.13336400      4.07244000       1
I               0.24175000      2.86706000      2.98707000      53
I               3.50645000      0.66955200     -2.13917000      53
H               0.88735900     -1.49830000      3.92211000       1
H               0.27812700     -2.19735000     -3.70651000       1
H              -0.89217200     -1.32049000      4.06333000       1
I               3.65318000     -0.11317400      2.40950000      53
C               3.14174000     -3.08035000     -0.50093800       6
C               0.07559040     -0.91514200      4.36308000       6
H               3.71563000     -2.40859000      1.38771000       1
N              -3.86408000      2.38510000      1.09843000       7
H              -3.85650000      1.95011000      2.04518000       1
H               3.93297000     -2.52800000     -1.01071000       1
H              -3.33632000      3.27576000      1.18249000       1
H               2.80183000     -3.82306000      1.41647000       1
N               3.56452000     -3.32506000      0.90672800       7
N              -0.42904700     -0.61524300     -4.90132000       7
H              -0.46054900      0.42421600     -4.93168000       1
I              -4.12656000     -2.46174000     -1.56248000      53
H               2.97238000     -4.04303000     -0.98592800       1
I              -3.42589000     -2.39332000      2.99362000      53
I              -0.27800800     -4.73067000     -2.11121000      53
I               0.55665600     -4.63368000      2.34414000      53
H              -1.40723000     -0.96607800     -4.95225000       1
I              -3.35816000      1.48390000     -3.83317000      53
H              -4.84989000      2.65315000      0.89564600       1
H               3.78550000      3.14464000     -2.90939000       1
I               3.98094000      4.05613000      0.76346800      53
H               0.03772270     -0.92317700     -5.77707000       1
N               0.18382700     -1.00223000      5.84962000       7
H               4.43110000     -3.87552000      0.93165000       1
P              -1.79444000      4.25555000     -4.08689000      15
H               3.10232000      4.67266000     -2.75839000       1
H               1.09902000     -0.61777000      6.17069000       1
H               2.20485000      4.24591000      4.12028000       1
H              -0.56849600     -0.46702700      6.31413000       1
I              -3.94390000      1.91693000      4.63620000      53
H              -0.71050600      6.30864000     -0.98592800       1
H               0.11467800     -1.99505000      6.16314000       1
I               3.40981000     -3.29506000     -4.43633000      53
N               3.85465000      4.13746000     -3.22291000       7
H               3.64980000      4.28881000      3.29546000       1
H               0.74821300      6.47616000      0.93165000       1
I               0.24492900      2.74637000     -6.07891000      53
H               6.11589000      2.65315000      0.89564600       1
H              -0.88105900      6.52862000      1.41647000       1
P              -5.42439000     -0.91612800     -4.04640000      15
P              -1.81231000      4.29586000      5.02613000      15
H               2.77865000      3.81920000     -5.00920000       1
P               5.54140000     -0.91612800     -4.04640000      15
I              -3.12623000      5.71800000      2.34414000      53
N               3.18303000      4.59674000      4.17121000       7
H              -2.51306000     -5.82976000     -2.90183000       1
N              -0.11836300      7.02662000      0.90672800       7
H               7.07492000      0.57344800      0.01306170       1
I              -3.30196000     -6.29555000      0.76346800      53
H               0.34656900     -7.07592000      1.18249000       1
H               4.76984000      4.52192000     -2.90183000       1
I              -3.96090000      5.62100000     -2.11121000      53
H               3.89020000      3.01464000      5.36601000       1
C              -0.54114900      7.27132000     -0.50093800       6
I              -3.37033000     -2.34492000     -6.08545000      53
C               3.74641000      4.22455000     -4.70945000       6
I               6.83922000     -2.46174000     -1.56248000      53
P              -5.46526000     -0.88414100      4.98564000      15
P               5.50052000     -0.88414100      4.98564000      15
I               3.93680000     -3.65579000      5.23935000      53
H              -4.13137000     -4.71547000      4.14084000       1
H              -7.03282000     -2.52800000     -1.01071000       1
N               7.10171000      2.38510000      1.09843000       7
H              -4.18057000     -5.67901000     -2.75839000       1
P               1.88845000     -6.09613000     -4.08689000      15
H               7.10928000      1.95011000      2.04518000       1
H              -6.53468000     -3.87552000      0.93165000       1
H               3.15153000      5.63620000      4.14084000       1
I              -7.31260000     -0.11317400      2.40950000      53
I               3.33407000      0.48131300      6.96131000      53
H              -7.25015000     -2.40859000      1.38771000       1
H               4.55818000      3.64139000     -5.15042000       1
I              -7.45933000      0.66955200     -2.13917000      53
N              -3.42825000     -6.21421000     -3.22291000       7
H              -3.63310000     -6.06287000      3.29546000       1
C               3.87889000      4.10610000      5.39123000       6
C               7.66592000      1.49165000      0.04533350       6
H              -1.16700000     -7.69853000      0.89564600       1
H               0.25007800      7.82367000     -1.01071000       1
H              -3.45435000     -5.07862000     -5.00008000       1
H               7.61462000      2.01575000     -0.91080600       1
I               3.76001000     -6.81693000     -1.55249000      53
I               4.22748000      0.50601400     -6.72838000      53
H              -1.46291000      7.85588000     -0.48685600       1
I              -0.51448300      2.75025000      7.51005000      53
N              -0.18119000     -7.96657000      1.09843000       7
H               0.03274760      7.94309000      1.38771000       1
P               1.87058000     -6.05582000      5.02613000      15
I              -6.98484000      4.05613000      0.76346800      53
N              -7.40126000     -3.32506000      0.90672800       7
H              -6.19595000      4.52192000     -2.90183000       1
N              -4.09987000     -5.75493000      4.17121000       7
H               3.82854000      5.27305000     -5.00008000       1
I              -0.16436900     -4.47014000      6.93336000      53
H              -2.38528000     -5.85298000      5.38842000       1
I              -0.27308100      7.05662000     -4.43633000      53
H              -7.18028000      3.14464000     -2.90939000       1
H               3.33110000      4.46473000      6.26455000       1
H               7.62946000      3.27576000      1.18249000       1
H               0.33172700     -8.33593000     -0.91080600       1
I               0.36886300     -1.15586000     -8.30906000      53
C              -7.82405000     -3.08035000     -0.50093800       6
I               7.53989000     -2.39332000      2.99362000      53
I              -3.59370000     -1.60494000      7.52004000      53
C              -3.53648000     -6.12713000     -4.70945000       6
H               3.49721000     -3.26188000     -7.02735000       1
I               0.25391000      6.69588000      5.23935000      53
H              -3.49740000     -7.20704000     -2.90939000       1
I               0.04110370     -5.32516000     -6.66303000      53
H               4.89762000      4.49869000      5.38842000       1
I               7.02188000      1.91693000      4.63620000      53
I               3.15634000      7.88993000     -1.56248000      53
I               7.60762000      1.48390000     -3.83317000      53
H              -0.17361400     -8.40157000      2.04518000       1
H              -2.86386000      1.26417000     -8.14088000       1
H               8.70319000      1.27343000      0.30377300       1
P               5.44995000      6.93467000      0.42295600      15
N              -7.11114000      4.13746000     -3.22291000       7
C               0.38302100     -8.86003000      0.04533350       6
P              -5.51583000      6.93467000      0.42295600      15
H              -2.72472000     -6.71029000     -5.15042000       1
H              -3.57933000      2.73110000     -7.68481000       1
C              -3.40401000     -6.24558000      5.39123000       6
H               2.50382000     -2.55884000     -8.17688000       1
H              -5.07805000     -6.10577000      4.12028000       1
I               3.92464000     -7.48461000      2.98707000      53
H              -4.49313000      1.31663000     -7.65606000       1
H              -6.40760000      3.64139000     -5.15042000       1
P               1.83788000      1.72269000     -8.64957000      15
H              -7.99340000     -4.04303000     -0.98592800       1
H               4.01739000     -1.93623000     -7.89004000       1
H              -7.31599000      4.28881000      3.29546000       1
I              -3.64178000      5.02652000     -6.66303000      53
H              -8.74580000     -2.49579000     -0.48685600       1
H              -8.16396000     -3.82306000      1.41647000       1
N               3.48963000     -2.82688000     -7.97410000       7
N              -3.73044000      1.81463000     -8.16580000       7
H              -3.42074000      2.68398000      8.06181000       1
H               1.42030000     -9.07825000      0.30377300       1
I               7.00489000      5.62100000     -2.11121000      53
H               6.78521000     -5.67901000     -2.75839000       1
H              -4.38133000      1.16895000      8.08660000       1
H               6.83441000     -4.71547000      4.14084000       1
H              -6.06816000      4.49869000      5.38842000       1
P              -9.16572000      1.69285000      0.42949900      15
I               3.85700000      7.95836000      2.99362000      53
I              -7.55598000     -3.29506000     -4.43633000      53
H              -7.07558000      3.01464000      5.36601000       1
H              -4.50425000     -6.53247000     -5.00920000       1
H               5.88773000     -6.10577000      4.12028000       1
H              -3.95180000     -5.88695000      6.26455000       1
I              -7.02899000     -3.65579000      5.23935000      53
P              -1.81201000     -3.51914000     -8.64303000      15
I              -6.73831000      0.50601400     -6.72838000      53
H              -7.86346000      4.67266000     -2.75839000       1
H              -3.40476000      8.15433000     -3.70651000       1
H               3.94380000     -3.12394000      8.16172000       1
C              -7.21937000      4.22455000     -4.70945000       6
I              -0.26101400     -8.43475000      4.63620000      53
I               0.32472200     -8.86778000     -3.83317000      53
H              -3.39269000     -7.33704000      5.36601000       1
P               9.13284000     -3.41700000      0.42295600      15
H              -0.20798100     -9.77823000      0.01306170       1
C              -4.21197000      2.13163000      8.57159000       6
C              -7.08689000      4.10610000      5.39123000       6
P               1.77913000      1.79498000      9.49548000      15
I              -3.84726000      5.88154000      6.93336000      53
N               6.86592000     -5.75493000      4.17121000       7
I               0.31011800     -1.08356000      9.83599000      53
I               7.66383000     -6.29555000      0.76346800      53
N              -7.78275000      4.59674000      4.17121000       7
I               7.83955000      5.71800000      2.34414000      53
H              -0.18568100      7.08980000     -7.02735000       1
I               7.59546000     -2.34492000     -6.08545000      53
I              -7.20578000     -6.81693000     -1.55249000      53
H               7.33269000     -6.06287000      3.29546000       1
H              -2.79553000      8.85338000      3.92211000       1
H               6.47265000      1.31663000     -7.65606000       1
H              -7.13724000      5.27305000     -5.00008000       1
P              -5.48283000     -8.65883000      0.42949900      15
P               5.48295000     -8.65883000      0.42949900      15
