200
cutoff_factor=1.20000000 nneightol=1.20000000 Lattice="28.20490000       0.00000000       0.00000000       0.00000000      29.03741000       0.00000000       0.00000000       0.00000000      28.31658000" Properties=species:S:1:pos:R:3:Z:I:1
H               0.10663900     -1.37407000     -0.13888700       1
C              -0.13824700     -1.87318000     -1.07915000       6
H               0.07593700     -1.21779000     -1.92640000       1
I               1.99788000      1.13173000      0.18559600      53
H              -1.18715000     -2.17824000     -1.08666000       1
I              -2.46009000      1.66508000     -0.18703100      53
H               0.15672800      1.75420000      2.50299000       1
N               0.71197700     -3.09753000     -1.20019000       7
P               0.09173830      3.16722000     -1.31657000      15
H               1.72241000     -2.85350000     -1.20732000       1
I              -1.80983000     -1.95437000      2.40112000      53
H               0.53782500     -3.75701000     -0.41507800       1
H              -0.82205100      0.00704010      3.87295000       1
C               0.28726400      1.77782000      3.58684000       6
H               0.49901000     -3.60765000     -2.07780000       1
I               0.07999240      1.38250000     -3.97143000      53
H               1.23914000      1.32211000      3.86889000       1
N              -0.81822500      0.99234600      4.20892000       7
H              -1.75350000      1.37327000      3.96120000       1
P              -4.41523000     -0.39483400      1.28319000      15
I               2.72711000     -2.61582000      2.83535000      53
P               4.53973000     -0.39483400      1.28319000      15
H               0.22941400      2.80437000      3.95436000       1
H              -4.24233000      1.05148000     -2.40877000       1
H               3.45163000      2.10249000     -3.12616000       1
I               4.40879000     -2.31713000     -1.31782000      53
H               3.33713000     -0.14918600     -3.99507000       1
I              -4.54617000     -2.31713000     -1.31782000      53
I               0.09843390      5.18087000      1.26158000      53
H              -0.76777200      0.99532600      5.24721000       1
H               4.71264000      1.05148000     -2.40877000       1
H              -3.39548000      4.30074000      0.65623900       1
P              -0.00580715     -4.08539000      3.93454000      15
C               4.37016000      1.54607000     -3.31921000       6
H              -3.80943000      2.20570000     -3.71524000       1
C              -4.58480000      1.54607000     -3.31921000       6
H              -3.11507000     -4.96457000      0.80767400       1
I               1.95905000     -2.58384000     -4.98226000      53
N               4.07152000      0.49557000     -4.33378000       7
I               2.63477000      4.79029000     -2.40158000      53
I               0.15805000     -5.85741000      1.26158000      53
H               3.49625000      4.51427000      1.92296000       1
I              -4.36130000      1.49317000      3.89212000      53
H              -4.04812000     -0.08576820     -4.55540000       1
I               4.59366000      1.49317000      3.89212000      53
I              -1.76681000      5.39173000     -2.83310000      53
I              -2.62387000     -2.01332000     -5.50854000      53
H               3.72575000      0.90205300     -5.22948000       1
H               3.77167000     -4.85982000      2.06457000       1
P               0.01853020     -0.52163200     -6.51283000      15
I              -1.70720000     -5.64655000     -2.83310000      53
N              -4.88345000      0.49557000     -4.33378000       7
C              -3.90328000      5.26397000      0.72445100       6
H              -5.50333000      2.10249000     -3.12616000       1
H               4.90684000     -0.08576820     -4.55540000       1
I               6.49488000      1.66508000     -0.18703100      53
H               5.14554000      2.20570000     -3.71524000       1
I               0.05565500     -2.18125000      6.47594000      53
H              -5.61784000     -0.14918600     -3.99507000       1
H              -3.17469000      6.07371000      0.80767400       1
H               3.70141000     -2.66170000      5.21788000       1
H              -0.74343400      4.55908000     -5.20016000       1
C              -3.84366000     -5.77431000      0.72445100       6
H               4.40702000      5.42059000     -0.14182700       1
N               4.20249000      5.26449000      1.95360000       7
I              -6.95709000      1.13173000      0.18559600      53
H               5.55948000      4.30074000      0.65623900       1
H              -4.54794000      5.42059000     -0.14182700       1
H               4.46664000     -5.61770000     -0.14182700       1
H              -4.15947000      5.13787000      2.80136000       1
H              -4.48832000     -5.61770000     -0.14182700       1
I               2.69438000     -6.24799000     -2.40158000      53
P              -4.37799000     -4.22715000     -3.90308000      15
H               0.47820900      7.28128000     -0.41507800       1
I              -6.22785000     -2.61582000      2.83535000      53
C               5.05169000      5.26397000      0.72445100       6
H              -5.45871000      4.51427000      1.92296000       1
P               4.57697000     -4.22715000     -3.90308000      15
N              -4.75247000      5.26449000      1.95360000       7
H              -5.18330000     -4.85982000      2.06457000       1
N               4.26211000     -5.77379000      1.95360000       7
H              -5.22922000      0.90205300     -5.22948000       1
H               3.71205000      6.17846000      2.06457000       1
H              -0.79771400      3.57079000     -6.57442000       1
H              -3.33587000     -6.73754000      0.65623900       1
H               4.79549000      5.13787000      2.80136000       1
I               1.87509000      4.89069000      5.46511000      53
H               3.55586000     -6.52401000      1.92296000       1
N              -4.69285000     -5.77379000      1.95360000       7
H               5.83989000     -4.96457000      0.80767400       1
H              -4.09986000     -5.90041000      2.80136000       1
H               0.43939400      7.43063000     -2.07780000       1
C               5.11130000     -5.77431000      0.72445100       6
N              -0.79388800      4.55610000     -6.23844000       7
I               7.14513000     -1.95437000      2.40112000      53
I              -2.70782000      5.46121000      4.93882000      53
H              -3.83376000     -1.35805000      6.73213000       1
H              -7.23255000     -2.85350000     -1.20732000       1
H              -5.25355000     -2.66170000      5.21788000       1
I              -2.64820000     -5.57707000      4.93882000      53
N               4.04718000     -3.06818000      6.11358000       7
P               0.15135400     -7.87106000     -1.31657000      15
P              -0.06542320      6.95290000      3.93454000      15
H               0.31336800     -4.67016000     -6.49301000       1
I              -1.79115000      1.82797000      7.61427000      53
H              -4.07246000     -3.64952000      5.89197000       1
N               0.65236100      7.94075000     -1.20019000       7
H               4.85510000     -5.90041000      2.80136000       1
H               7.76782000     -2.17824000     -1.08666000       1
H               3.31279000     -3.71294000      6.45229000       1
I               2.75145000      0.94793500     -7.61202000      53
H               3.42729000     -1.46126000      7.32120000       1
I              -6.32019000      4.79029000     -2.40158000      53
H               1.26348000      4.88586000     -6.57847000       1
H              -1.72916000      4.93702000     -6.48617000       1
H               7.20146000      1.37327000      3.96120000       1
H              -0.68381800     -6.47920000     -5.20016000       1
H              -5.24291000      6.17846000      2.06457000       1
I              -1.78549000      1.60939000     -8.04625000      53
N              -4.90778000     -3.06818000      6.11358000       7
H               5.78027000      6.07371000      0.80767400       1
H               1.66279000      8.18478000     -1.20732000       1
I               1.93471000     -6.14759000      5.46511000      53
H               4.88250000     -3.64952000      5.89197000       1
I               2.61043000      1.22654000      8.04578000      53
P              -4.46195000      3.24738000      6.54428000      15
H               5.12120000     -1.35805000      6.73213000       1
P               4.49302000      3.24738000      6.54428000      15
C               4.34582000     -2.01768000      7.12816000       6
I               6.33110000     -2.01332000     -5.50854000      53
H              -5.39910000     -6.52401000      1.92296000       1
C               0.31160200      5.34158000     -6.86052000       6
C              -4.60914000     -2.01768000      7.12816000       6
H              -7.71582000      1.32211000      3.86889000       1
H               5.61910000     -6.73754000      0.65623900       1
N              -8.24299000     -3.09753000     -1.20019000       7
C               0.37121800     -5.69671000     -6.86052000       6
H              -8.84832000     -1.37407000     -0.13888700       1
I              -6.99592000     -2.58384000     -4.98226000      53
H              -4.07552000     -2.33666000     -7.64601000       1
H               8.13291000      0.00704010      3.87295000       1
H              -1.24676000      8.86004000     -1.08666000       1
P              -4.43761000      6.81113000     -3.90308000      15
N              -0.73427200     -6.48218000     -6.23844000       7
P               4.51735000      6.81113000     -3.90308000      15
H              -1.66955000     -6.10126000     -6.48617000       1
C               8.81672000     -1.87318000     -1.07915000       6
H               0.25375100      6.36812000     -6.49301000       1
H               1.32310000     -6.15242000     -6.57847000       1
H               0.28903000     -8.23391000      3.95436000       1
P               0.06740090     -0.39653300      9.13080000      15
I              -6.26058000     -6.24799000     -2.40158000      53
H               9.06160000     -1.37407000     -0.13888700       1
H              -8.87903000     -1.21779000     -1.92640000       1
N               8.13674000      0.99234600      4.20892000       7
H              -8.41714000     -3.75701000     -0.41507800       1
H               0.41505700      3.86688000      8.36957000       1
C              -0.19786300      9.16510000     -1.07915000       6
I               2.66750000      8.42246000      2.83535000      53
H              -5.52767000     -1.46126000      7.32120000       1
H               3.79600000     -1.29607000     -8.38279000       1
H              -8.79823000      1.75420000      2.50299000       1
H               9.03090000     -1.21779000     -1.92640000       1
H              -5.64217000     -3.71294000      6.45229000       1
I              -4.33696000      5.05692000     -6.55525000      53
C              -9.09321000     -1.87318000     -1.07915000       6
H               4.87944000     -2.33666000     -7.64601000       1
I               7.18815000      5.39173000     -2.83310000      53
H              -8.45595000     -3.60765000     -2.07780000       1
H              -4.26666000     -2.51227000      8.03860000       1
I               0.18238700     -2.29366000     -9.18578000      53
I               4.61800000      5.05692000     -6.55525000      53
P              -8.86322000      3.16722000     -1.31657000      15
C              -8.66770000      1.77782000      3.58684000       6
H               0.18106500      5.31796000     -7.94438000       1
I              -1.86945000      9.08392000      2.40112000      53
H               9.11169000      1.75420000      2.50299000       1
I               7.24777000     -5.64655000     -2.83310000      53
H               0.21634400     -9.28408000      2.50299000       1
H               4.68830000     -2.51227000      8.03860000       1
I               6.24714000      5.46121000      4.93882000      53
H               0.04702260      9.66421000     -0.13888700       1
P               9.04670000      3.16722000     -1.31657000      15
I              -2.40047000     -9.37320000     -0.18703100      53
H               3.58020000     -2.96025000     -8.52441000       1
I               6.30676000     -5.57707000      4.93882000      53
N               4.28645000     -2.21004000     -8.49377000       7
H               0.05159960     -4.78155000      8.52097000       1
H               8.18719000      0.99532600      5.24721000       1
H               0.24068100     -5.72032000     -7.94438000       1
I              -8.87497000      1.38250000     -3.97143000      53
I               4.34917000      8.72115000     -1.31782000      53
I              -4.27735000     -5.98136000     -6.55525000      53
I              -6.20351000      0.94793500     -7.61202000      53
H              -5.15896000     -1.29607000     -8.38279000       1
C               0.34688100     -9.26046000      3.58684000       6
N              -4.66852000     -2.21004000     -8.49377000       7
I              -4.60579000      8.72115000     -1.31782000      53
I               9.03495000      1.38250000     -3.97143000      53
H              -0.73809800     -7.46749000     -6.57442000       1
