200
cutoff_factor=1.20000000 nneightol=1.20000000 Lattice="31.29590000       0.00000000       0.00000000       0.00000000      30.61710000       0.00000000       0.00000000       0.00000000      30.28558000" Properties=species:S:1:pos:R:3:Z:I:1
H              -1.64124000     -0.88170300     -1.11353000       1
P               1.52110000     -0.37788400      1.64812000      15
I              -0.89363900      1.54385000      2.19025000      53
C              -1.93244000     -0.94048900     -2.16452000       6
H              -1.12487000     -0.58413700     -2.80779000       1
I              -0.62197300     -2.82574000      1.52124000      53
I               3.34452000     -1.60465000     -0.51134800      53
H              -2.94250000      0.94029400     -2.13552000       1
H              -2.20577000     -1.96514000     -2.42696000       1
N              -3.12237000     -0.06726140     -2.37364000       7
H              -3.92076000     -0.38121800     -1.77851000       1
I               3.42964000      2.16995000      1.81196000      53
H              -2.15080000     -1.10406000      3.74388000       1
I              -3.03553000      3.29366000     -1.52212000      53
H              -3.42933000     -0.08500390     -3.37336000       1
H               3.08662000     -2.66222000     -2.74807000       1
H              -3.52385000      0.00922868      3.42943000       1
P              -2.92191000      3.82128000      1.48325000      15
H               1.86876000      3.62469000      3.07967000       1
H               0.44043900      3.33865000      3.86964000       1
C              -3.09676000     -0.71494200      4.12676000       6
I               2.30614000     -1.08537000      4.59083000      53
H               0.87203000     -4.17471000      3.32958000       1
H               5.14603000     -0.38121800     -1.77851000       1
H               2.06647000     -3.15980000     -3.98587000       1
I              -0.28782700     -3.09113000     -4.59898000      53
N               1.19194000      4.04191000      3.75973000       7
N               3.07210000     -2.96946000     -3.74776000       7
H              -2.13683000      0.73433500      5.31245000       1
H               3.37780000     -2.16793000     -4.34296000       1
H              -3.79811000     -1.53135000      4.30812000       1
I              -5.72227000     -1.60465000     -0.51134800      53
H               0.77832400      4.89167000      3.32958000       1
N              -2.83233000     -0.02438140      5.42219000       7
P              -2.82820000     -5.24510000      1.48325000      15
I              -5.63715000      2.16995000      1.81196000      53
H               3.51593000      4.10495000     -3.31329000       1
N               5.94442000     -0.06726140     -2.37364000       7
N               1.28564000     -5.02447000      3.75973000       7
I              -0.71568000      6.24064000      1.52124000      53
H               5.54294000      0.00922868      3.42943000       1
H               1.96247000     -5.44169000      3.07967000       1
H               6.12429000      0.94029400     -2.13552000       1
H               5.63746000     -0.08500390     -3.37336000       1
H              -2.40821000     -0.69696500      6.10218000       1
I              -2.94182000     -5.77272000     -1.52212000      53
H              -4.08740000     -3.86632000     -3.69420000       1
H               2.27884000      3.37165000      5.43792000       1
C               1.87993000      4.31353000      5.05504000       6
H               2.78274000     -4.04314000      4.87350000       1
H              -3.68633000      0.38041700      5.85233000       1
H               0.53414500     -5.72773000      3.86964000       1
C               3.95764000     -4.15030000     -3.95666000       6
H               3.60964000     -4.96143000     -3.31329000       1
H               5.26868000     -1.53135000      4.30812000       1
I               6.03126000      3.29366000     -1.52212000      53
H              -5.98017000     -2.66222000     -2.74807000       1
I              -4.48414000     -0.35393600     -5.61018000      53
C               1.97364000     -4.75285000      5.05504000       6
I              -3.29342000     -4.51694000      4.59091000      53
I               4.58265000     -0.35393600     -5.61018000      53
C               5.97002000     -0.71494200      4.12676000       6
I              -3.38713000      4.54944000      4.59091000      53
I              -0.35597800      2.08696000      6.99135000      53
H               4.97938000     -3.86632000     -3.69420000       1
H               1.24521000     -4.33321000      5.75245000       1
P               6.14488000      3.82128000      1.48325000      15
H               1.97276000      5.90658000     -3.98587000       1
C               3.86393000      4.91608000     -3.95666000       6
H              -5.68899000     -2.16793000     -4.34296000       1
H               2.68904000      5.02324000      4.87350000       1
C               7.13434000     -0.94048900     -2.16452000       6
H               1.15150000      4.73317000      5.75245000       1
H               6.86102000     -1.96514000     -2.42696000       1
I              -0.38153400      5.97525000     -4.59898000      53
H               7.42555000     -0.88170300     -1.11353000       1
H               2.99291000      6.40417000     -2.74807000       1
H              -4.18111000      5.20006000     -3.69420000       1
H              -5.55085000      4.10495000     -3.31329000       1
N              -5.99468000     -2.96946000     -3.74776000       7
C              -5.10915000     -4.15030000     -3.95666000       6
P               1.59068000     -0.30777100      7.53357000      15
P              -7.54569000     -0.37788400      1.64812000      15
H               3.90194000     -4.44225000     -5.00761000       1
N               2.97840000      6.09692000     -3.74776000       7
I              -0.93724500     -2.24257000      7.36990000      53
H               3.80823000      4.62414000     -5.00761000       1
H              -2.29948000      7.10124000     -2.42696000       1
I              -0.79993200     -7.52253000      2.19025000      53
H               6.91599000     -1.10406000      3.74388000       1
I               3.52334000     -6.89643000      1.81196000      53
H               5.38046000      0.38041700      5.85233000       1
I               0.80878600     -0.47784100     -7.93293000      53
H               4.88568000      5.20006000     -3.69420000       1
H              -5.45715000     -4.96143000     -3.31329000       1
I               3.25081000      7.46173000     -0.51134800      53
C              -5.20286000      4.91608000     -3.95666000       6
H               2.37255000     -5.69473000      5.43792000       1
I              -6.76065000     -1.08537000      4.59083000      53
N               6.23445000     -0.02438140      5.42219000       7
P               6.23859000     -5.24510000      1.48325000      15
P              -0.81446100     -3.21000000     -7.60431000      15
H              -1.73495000      8.18468000     -1.11353000       1
H               7.94191000     -0.58413700     -2.80779000       1
H              -5.16485000     -4.44225000     -5.00761000       1
I               6.12496000     -5.77272000     -1.52212000      53
P               3.33671000      1.45695000     -7.76926000      15
I               8.17315000      1.54385000      2.19025000      53
I               5.67966000      4.54944000      4.59091000      53
H              -5.25856000      4.62414000     -5.00761000       1
H              -7.19802000      3.62469000      3.07967000       1
I               5.77337000     -4.51694000      4.59091000      53
C              -2.02615000      8.12589000     -2.16452000       6
H              -7.00032000     -3.15980000     -3.98587000       1
H               6.92996000      0.73433500      5.31245000       1
H               3.28409000      6.89845000     -4.34296000       1
I               4.01616000      1.86054000      7.66058000      53
H              -2.84879000     -8.12609000     -2.13552000       1
H              -6.28404000     -4.04314000      4.87350000       1
P               1.42739000      8.68850000      1.64812000      15
H              -1.21858000      8.48224000     -2.80779000       1
I              -5.54344000     -6.89643000      1.81196000      53
I               8.44481000     -2.82574000      1.52124000      53
H               6.65858000     -0.69696500      6.10218000       1
H              -2.24451000      7.96232000      3.74388000       1
I              -3.30460000      3.62527000     -7.64226000      53
P              -2.65420000      4.09166000      7.69853000      15
H              -6.07388000      6.40417000     -2.74807000       1
I               1.39005000      3.85169000     -8.31148000      53
H              -0.66217800      1.06776000     -9.20065000       1
H              -6.78795000      3.37165000      5.43792000       1
I              -5.05063000      1.86054000      7.66058000      53
N              -6.08839000      6.09692000     -3.74776000       7
H              -7.10432000     -5.44169000      3.07967000       1
H              -6.37775000      5.02324000      4.87350000       1
I               2.21243000      7.98101000      4.59083000      53
I              -5.81598000      7.46173000     -0.51134800      53
H              -3.89182000      7.53504000      4.30812000       1
P              -2.56049000     -4.97473000      7.69853000      15
N              -7.87485000      4.04191000      3.75973000       7
P              -0.90816800      5.85638000     -7.60431000      15
P               1.61481000     -9.44427000      1.64812000      15
H              -4.01447000      8.68516000     -1.77851000       1
P              -5.73008000      1.45695000     -7.76926000      15
H              -8.19476000     -4.17471000      3.32958000       1
C              -7.18685000      4.31353000      5.05504000       6
C              -3.19047000      8.35144000      4.12676000       6
N              -3.21608000      8.99912000     -2.37364000       7
I              -0.26227100     -6.97942000      6.99135000      53
H              -1.94030000      2.14514000     -9.45050000       1
N              -3.02866000     -9.13364000     -2.37364000       7
I              -3.21089000     -5.44112000     -7.64226000      53
C              -7.09315000     -4.75285000      5.05504000       6
I               1.48376000     -5.21470000     -8.31148000      53
H              -5.78270000      6.89845000     -4.34296000       1
N              -7.78114000     -5.02447000      3.75973000       7
H              -8.62635000      3.33865000      3.86964000       1
H              -7.09402000      5.90658000     -3.98587000       1
H              -2.04312000     -8.33205000      5.31245000       1
N              -1.08630000      1.74034000     -9.88064000       7
I              -1.03095000      6.82382000      7.36990000      53
H              -1.03117000     -9.65052000     -2.80779000       1
H               6.76731000      7.10124000     -2.42696000       1
H               5.17497000      7.53504000      4.30812000       1
H              -1.54753000     -9.94808000     -1.11353000       1
H              -8.28846000      4.89167000      3.32958000       1
H               5.05232000      8.68516000     -1.77851000       1
I              -9.68876000     -2.82574000      1.52124000      53
H              -3.52303000      8.98138000     -3.37336000       1
I               5.76219000      3.62527000     -7.64226000      53
H              -3.43014000     -9.05715000      3.42943000       1
H              -0.39079900      2.49906000     -9.99038000       1
H              -3.33562000     -9.15139000     -3.37336000       1
I              -9.96043000      1.54385000      2.19025000      53
I               2.83662000     -2.11866000      9.69265000      53
H               2.99124000     -2.56848000     -9.55038000       1
H              -6.69424000     -5.69473000      5.43792000       1
H              -3.82705000     -9.44760000     -1.77851000       1
H              -3.61755000      9.07561000      3.42943000       1
I               8.77896000     -3.09113000     -4.59898000      53
C              -1.83874000    -10.00690000     -2.16452000       6
H               6.21800000     -8.12609000     -2.13552000       1
I               8.35111000      6.24064000      1.52124000      53
H             -10.19170000     -0.58413700     -2.80779000       1
P              -7.47611000     -0.30777100      7.53357000      15
H              -7.82158000     -4.33321000      5.75245000       1
H              -2.50192000      8.36942000      6.10218000       1
H              -3.03620000     10.00670000     -2.13552000       1
P              10.58790000     -0.37788400      1.64812000      15
H               9.50723000      3.33865000      3.86964000       1
H             -10.70800000     -0.88170300     -1.11353000       1
P               6.41259000      4.09166000      7.69853000      15
H              -7.91528000      4.73317000      5.75245000       1
I              -9.35461000     -3.09113000     -4.59898000      53
I              -0.98734600     10.61020000      2.19025000      53
H               2.06220000      2.85941000     10.29520000       1
N              -2.73863000     -9.09076000      5.42219000       7
N              -2.92604000      9.04200000      5.42219000       7
H               5.23973000     -9.44760000     -1.77851000       1
C               7.04064000      8.12589000     -2.16452000       6
