200
cutoff_factor=1.20000000 nneightol=1.20000000 Lattice="28.71021000       0.00000000       0.00000000       0.00000000      28.71850000       0.00000000       0.00000000       0.00000000      29.01588000" Properties=species:S:1:pos:R:3:Z:I:1
I               0.93066900      0.71838400     -1.27429000      53
P              -1.66610000     -1.14911000     -0.77579500      15
H               2.28739000      0.07498510      1.44904000       1
I              -1.11683000     -1.32296000      2.33853000      53
H               2.05290000     -1.70083000      1.56073000       1
C               2.72398000     -0.86828100      1.78372000       6
H               1.53900000     -0.79191800     -3.21352000       1
I              -3.51115000      1.45851000     -0.48351700      53
H              -2.31857000      3.03175000      1.12227000       1
I               0.19319700     -3.83181000     -1.18387000      53
H               3.69811000     -1.02352000      1.31629000       1
H              -0.88199400      2.67990000      3.04376000       1
H               2.02658000     -0.58152800      3.74515000       1
H              -2.29737000      2.59428000     -2.55852000       1
H              -1.02843000      4.11672000      1.06101000       1
P               2.75947000      3.33142000     -0.80741800      15
N               2.91778000     -0.79712700      3.26020000       7
I               2.23868000      3.17866000      2.32629000      53
N              -1.87709000      3.84904000      1.59536000       7
I              -2.04536000     -1.09717000     -3.97007000      53
N               1.88580000     -1.27913000     -4.06874000       7
H              -0.43825300      2.37758000     -4.13315000       1
C              -1.54189000      3.55000000      3.01677000       6
H               1.30436000     -2.11757000     -4.24657000       1
H               3.58692000     -0.04465720      3.51925000       1
N              -2.10767000      3.33012000     -3.26643000       7
H              -0.98278800     -4.92083000      1.06101000       1
H               3.41597000     -2.32563000     -3.07099000       1
H              -1.53843000      4.07145000     -2.80727000       1
H               3.31025000     -1.68107000      3.64856000       1
H               1.74118000     -0.62824800     -4.86979000       1
I              -4.17463000     -3.15939000     -0.42176500      53
H              -2.49825000     -4.39798000      1.52333000       1
I               0.14755700      5.20574000     -1.18387000      53
C               3.32021000     -1.64361000     -3.91834000       6
C              -1.40868000      2.76368000     -4.45339000       6
H               3.88998000     -0.72914500     -3.73952000       1
H              -2.47042000      3.34650000      3.55252000       1
H              -2.54389000      4.63957000      1.52333000       1
H              -5.28826000     -1.02352000      1.31629000       1
H              -2.02359000      1.95999000     -4.86390000       1
I               5.47522000      1.45851000     -0.48351700      53
H              -1.04212000      4.42332000      3.44011000       1
N              -1.83145000     -5.18851000      1.59536000       7
I               4.81174000     -3.15939000     -0.42176500      53
H              -0.99648100     -4.61423000      3.44011000       1
P              -1.72601000     -1.24975000      5.46871000      15
H              -1.49279000     -4.96610000     -2.80727000       1
H              -3.04272000      3.70125000     -3.53947000       1
I               0.82463900      0.76319000      5.85635000      53
I               3.40606000      3.51948000     -3.96107000      53
H              -5.09639000     -0.72914500     -3.73952000       1
P               2.80511000     -5.70613000     -0.80741800      15
H              -1.28209000      3.55845000     -5.19014000       1
H               3.65312000     -2.12895000     -4.83833000       1
C              -1.49625000     -5.48755000      3.01677000       6
H              -5.39945000     -0.04465720      3.51925000       1
I              -3.74371000      1.24086000      5.11732000      53
H              -2.27293000     -6.00580000      1.12227000       1
C              -6.26239000     -0.86828100      1.78372000       6
I               2.28432000     -5.85889000      2.32629000      53
H              -5.57040000     -2.32563000     -3.07099000       1
H              -6.69898000      0.07498510      1.44904000       1
I               0.91999200      0.81759300     -6.78023000      53
N              -2.06203000     -5.70743000     -3.26643000       7
N              -6.06859000     -0.79712700      3.26020000       7
H              -5.67612000     -1.68107000      3.64856000       1
I               0.35753100     -3.67768000      5.94733000      53
P               2.78643000      3.34475000      5.49936000      15
H              -2.99708000     -5.33630000     -3.53947000       1
C              -5.66616000     -1.64361000     -3.91834000       6
H              -0.83635300     -6.35765000      3.04376000       1
P              -6.22690000      3.33142000     -0.80741800      15
H              -2.42478000     -5.69105000      3.55252000       1
I              -4.22027000      5.87816000     -0.42176500      53
H              -2.25173000     -6.44328000     -2.55852000       1
H              -6.93347000     -1.70083000      1.56073000       1
I              -4.18353000     -3.22960000      5.05388000      53
H               6.66780000      3.03175000      1.12227000       1
I               5.24266000      1.24086000      5.11732000      53
P              -1.63066000     -1.19534000     -7.16787000      15
P               7.32027000     -1.14911000     -0.77579500      15
H              -5.33325000     -2.12895000     -4.83833000       1
I               4.76610000      5.87816000     -0.42176500      53
H               6.68900000      2.59428000     -2.55852000       1
I               3.45170000     -5.51807000     -3.96107000      53
I               0.45288400     -3.62327000     -6.68925000      53
H              -1.23645000     -5.47910000     -5.19014000       1
I               4.80284000     -3.22960000      5.05388000      53
I              -5.58031000      3.51948000     -3.96107000      53
H               2.00726000      7.33672000      1.56073000       1
I              -6.74768000      3.17866000      2.32629000      53
C              -1.36304000     -6.27387000     -4.45339000       6
H               5.94365000      3.70125000     -3.53947000       1
H              -0.39261200     -6.65997000     -4.13315000       1
H              -6.95979000     -0.58152800      3.74515000       1
H               1.64583000     -0.68265100      7.76678000       1
H               6.48811000     -4.39798000      1.52333000       1
I               0.31189000      5.35987000      5.94733000      53
I               6.94100000     -1.09717000     -3.97007000      53
H               6.44247000      4.63957000      1.52333000       1
P              -1.71174000      7.88844000     -0.77579500      15
H               3.37033000      6.71192000     -3.07099000       1
H               6.51595000      3.34650000      3.55252000       1
I              -1.16247000      7.71459000      2.33853000      53
H              -7.44737000     -0.79191800     -3.21352000       1
I              -8.05570000      0.71838400     -1.27429000      53
H               1.25872000      6.91998000     -4.24657000       1
N               7.10927000      3.84904000      1.59536000       7
H              -2.11894000      1.90559000      7.77268000       1
N              -7.10056000     -1.27913000     -4.06874000       7
N               6.87869000      3.33012000     -3.26643000       7
I               7.86953000     -1.32296000      2.33853000      53
H              -1.37744000      3.50405000      7.44644000       1
I              -3.46551000     -7.57904000     -0.48351700      53
P               2.83207000     -5.69280000      5.49936000      15
P               2.88178000      3.39915000     -7.13722000      15
P              -6.18126000     -5.70613000     -0.80741800      15
I              -3.64836000      1.29526000     -7.51926000      53
I               0.97631000     -8.31917000     -1.27429000      53
I               0.40724300      5.41428000     -6.68925000      53
H               6.96278000      1.95999000     -4.86390000       1
C              -1.50403000      2.70928000      8.18318000       6
H               1.20901000     -2.17197000      8.39000000       1
H              -7.24519000     -0.62824800     -4.86979000       1
I              -5.53467000     -5.51807000     -3.96107000      53
H               5.98929000     -5.33630000     -3.53947000       1
C               2.67834000      8.16927000      1.78372000       6
C               7.44448000      3.55000000      3.01677000       6
I              -4.22917000      5.80795000      5.05388000      53
H              -1.97794000     -7.07756000     -4.86390000       1
H              -0.53360600      2.32317000      8.50343000       1
H               3.26461000      7.35648000      3.64856000       1
H               3.55777000     -2.18336000      7.79825000       1
N               1.79045000     -1.33353000      8.56784000       7
H               3.65247000      8.01403000      1.31629000       1
P              -6.19994000      3.34475000      5.49936000      15
H               7.44794000      4.07145000     -2.80727000       1
N               1.84016000      7.75842000     -4.06874000       7
H               1.49336000      8.24563000     -3.21352000       1
N               7.15491000     -5.18851000      1.59536000       7
C               3.27457000      7.39394000     -3.91834000       6
I              -2.14072000     -1.15158000      8.66651000      53
H               7.95794000      4.11672000      1.06101000       1
H              -7.68201000     -2.11757000     -4.24657000       1
I               4.75720000      5.80795000      5.05388000      53
H               8.10437000      2.67990000      3.04376000       1
H               6.71344000     -6.00580000      1.12227000       1
I              -2.09100000      7.94038000     -3.97007000      53
H               2.12193000     -0.52712500     -8.89143000       1
H               3.60748000      6.90860000     -4.83833000       1
P               7.26035000     -1.24975000      5.46871000      15
I              -4.08818000     -3.17519000     -7.58270000      53
I              -6.70204000     -5.85889000      2.32629000      53
C               7.57769000      2.76368000     -4.45339000       6
H              -5.61604000      6.71192000     -3.07099000       1
I               5.33801000      1.29526000     -7.51926000      53
N               2.87214000      8.24042000      3.26020000       7
H              -1.33180000     -5.53350000      7.44644000       1
H               2.33303000     -8.96257000      1.44904000       1
H               6.56159000     -5.69105000      3.55252000       1
I               5.52086000     -7.57904000     -0.48351700      53
H               7.49358000     -4.96610000     -2.80727000       1
C               3.22486000     -1.69801000      8.71824000       6
H               8.00358000     -4.92083000      1.06101000       1
H               1.98094000      8.45602000      3.74515000       1
H               2.24175000      9.11254000      1.44904000       1
N               6.92433000     -5.70743000     -3.26643000       7
P               2.92742000     -5.63840000     -7.13722000      15
I               4.89819000     -3.17519000     -7.58270000      53
H               1.44365000     -0.84632100      9.42306000       1
I              -8.79317000     -3.83181000     -1.18387000      53
H               6.73464000     -6.44328000     -2.55852000       1
P              -1.77165000      7.78780000      5.46871000      15
H               3.79463000     -0.78354800      8.89706000       1
H              -5.33390000      8.01403000      1.31629000       1
H               7.94425000      4.42332000      3.44011000       1
H               3.40560000     -1.62667000     -8.98802000       1
H              -5.42860000     -2.18336000      7.79825000       1
C               7.49012000     -5.48755000      3.01677000       6
H               8.54812000      2.37758000     -4.13315000       1
H               3.68227000      0.00974574     -9.11733000       1
H               7.98989000     -4.61423000      3.44011000       1
H               1.69554000      8.40930000     -4.86979000       1
N               3.01313000     -0.74272400     -9.37638000       7
I               0.88502900      9.75593000     -1.27429000      53
H               3.84434000      8.30841000     -3.73952000       1
I               3.31071000      3.46508000      8.67551000      53
H               7.70428000      3.55845000     -5.19014000       1
H              -2.37507000      3.40091000     -9.08406000       1
P              -6.10458000      3.39915000     -7.13722000      15
H              -5.37889000      6.90860000     -4.83833000       1
H              -0.78664100      2.73430000     -9.59282000       1
H              -5.72176000      7.35648000      3.64856000       1
I               9.17957000     -3.83181000     -1.18387000      53
I               9.91704000      0.71838400     -1.27429000      53
P              -6.15430000     -5.69280000      5.49936000      15
I              -3.69807000     -7.79669000      5.11732000      53
I              -8.16173000      0.76319000      5.85635000      53
C              -5.71180000      7.39394000     -3.91834000       6
