200
cutoff_factor=1.20000000 nneightol=1.20000000 Lattice="29.16387000       0.00000000       0.00000000       0.00000000      27.62379000       0.00000000       0.00000000       0.00000000      28.45250000" Properties=species:S:1:pos:R:3:Z:I:1
H               0.14043100      0.40396500      1.04544000       1
I              -1.25614000      0.08531180     -1.07077000      53
N               0.79643400      0.33281800      1.85340000       7
H               1.28860000     -0.57977900      1.73247000       1
H               1.49105000      1.09079000      1.78043000       1
H               0.50615800     -2.59369000     -1.41485000       1
C               0.05885210      0.36884000      3.15155000       6
H              -0.66219100     -0.45176600      3.16226000       1
H              -0.45485200      1.32819000      3.23004000       1
P               0.56729500      2.29170000     -2.63695000      15
I               3.17272000      0.90048200     -1.37045000      53
I               2.32045000     -2.80135000      1.13705000      53
C               0.29549000     -3.30016000     -2.22062000       6
H               0.78047800      0.25110100      3.96099000       1
I               0.22727700      4.09731000      0.03091960      53
P              -3.88303000     -1.38077000     -0.00984380      15
H              -0.73928300     -3.19951000     -2.55585000       1
H              -2.37877000      3.58206000      0.01354280       1
I              -2.12231000     -3.42294000      1.69211000      53
H               1.03586000     -2.02762000     -3.73254000       1
H              -3.66763000      2.75404000     -0.70691700       1
H              -3.56602000      2.82594000      0.95839200       1
N               1.19541000     -2.98823000     -3.36908000       7
I              -3.88470000      0.54553900      2.61859000      53
H               0.49448900     -4.32336000     -1.89433000       1
N              -3.39455000      3.36487000      0.08895770       7
H               2.19637000     -3.09429000     -3.10595000       1
P               4.96959000     -1.38077000     -0.00984380      15
I               0.84826100      0.26328300     -5.14795000      53
H              -3.89516000      0.79395400     -3.88456000       1
H              -2.51859000      0.36365100     -4.95138000       1
H               1.00048000     -3.64727000     -4.14910000       1
H               3.58340000      4.33222000      0.11245300       1
I              -2.11632000      3.59820000     -3.76892000      53
I               4.96793000      0.54553900      2.61859000      53
P               0.49300600     -5.01088000      2.61861000      15
I              -4.05224000     -3.19874000     -2.60020000      53
I              -5.67990000      0.90048200     -1.37045000      53
H               5.18499000      2.75404000     -0.70691700       1
C              -3.58217000      0.21178900     -4.75389000       6
I              -1.28714000      3.91292000      4.32607000      53
H              -3.79526000     -0.84853300     -4.60286000       1
H               5.28661000      2.82594000      0.95839200       1
C              -4.21433000      4.61172000      0.06370070       6
I               0.81823600     -3.17482000      5.33204000      53
H              -4.20209000     -1.75252000      4.34979000       1
I               4.80039000     -3.19874000     -2.60020000      53
H               4.95747000      0.79395400     -3.88456000       1
N               5.45807000      3.36487000      0.08895770       7
H              -4.08766000     -3.28622000      3.69502000       1
H               3.44744000     -2.89593000      4.68116000       1
I               2.30705000      4.43259000     -4.15472000      53
P               0.43401200      5.96067000      2.61861000      15
C               4.63830000      4.61172000      0.06370070       6
I               3.11728000      4.49019000      3.59883000      53
H              -4.00232000      5.14555000     -0.86518800       1
H               4.65054000     -1.75252000      4.34979000       1
H              -3.94234000      5.22121000      0.92779800       1
H               3.47746000      0.54216500     -5.79884000       1
I               2.27703000      0.99448900      6.32528000      53
H              -2.54861000     -3.07445000      5.52862000       1
H              -5.26922000      4.33222000      0.11245300       1
H               4.76497000     -3.28622000      3.69502000       1
I               0.28627100     -6.87425000      0.03091960      53
N              -4.38482000     -2.75516000      4.53864000       7
H               5.05737000     -0.84853300     -4.60286000       1
H               0.43549500      6.64820000     -1.89433000       1
N               4.46780000     -2.75516000      4.53864000       7
H              -3.88335000     -5.75035000      0.92779800       1
P              -3.91962000      2.41627000      5.28074000      15
I              -2.14634000      0.16010100      6.71108000      53
H              -3.94333000     -5.82600000     -0.86518800       1
C               5.27045000      0.21178900     -4.75389000       6
H               4.85030000      5.14555000     -0.86518800       1
I              -6.53217000     -2.80135000      1.13705000      53
H               4.91028000      5.22121000      0.92779800       1
I              -1.19813000     -3.62054000     -6.15393000      53
N              -4.35480000      0.68294200     -5.94136000       7
H               6.47386000      3.58206000      0.01354280       1
N               4.49782000      0.68294200     -5.94136000       7
H               0.91145800      3.88619000      6.33090000       1
C              -3.61220000     -3.22631000      5.72611000       6
H               0.81050200      3.68920000     -6.51900000       1
H               3.64240000     -6.63933000      0.11245300       1
C              -4.15533000     -6.35984000      0.06370070       6
H              -4.17206000      1.68558000     -6.13021000       1
P               4.93301000      2.41627000      5.28074000      15
H              -7.36157000      1.09079000      1.78043000       1
H               4.96928000     -5.75035000      0.92779800       1
H               4.90930000     -5.82600000     -0.86518800       1
I               7.59648000      0.08531180     -1.07077000      53
H              -5.40519000     -2.89593000      4.68116000       1
I               6.73031000     -3.42294000      1.69211000      53
H              -2.31977000     -7.38950000      0.01354280       1
H              -7.56402000     -0.57977900      1.73247000       1
H               4.68056000      1.68558000     -6.13021000       1
C               4.69729000     -6.35984000      0.06370070       6
H              -4.05763000      0.15187900     -6.78498000       1
H              -5.37516000      0.54216500     -5.79884000       1
H              -0.63216600      2.98633000     -7.31774000       1
P               0.53727100     -1.14640000      7.84305000      15
H              -6.65626000     -3.09429000     -3.10595000       1
C               0.23649600      7.67140000     -2.22062000       6
P               0.52303000     -1.57278000     -7.86138000      15
I              -2.18130000      7.54862000      1.69211000      53
H               6.33404000      0.36365100     -4.95138000       1
I               3.17628000     -6.48136000      3.59883000      53
I               2.36604000     -6.53897000     -4.15472000      53
H              -3.92518000     -2.64414000      6.59543000       1
I              -5.73534000      4.49019000      3.59883000      53
I               3.20630000     -3.04326000     -6.88117000      53
H              -3.82528000     -4.28663000      5.87714000       1
H              -0.79827700      7.77204000     -2.55585000       1
P              -3.83060000     -5.11718000     -5.19925000      15
C               0.08887630      3.80694000     -7.32845000       6
N              -8.05619000      0.33281800      1.85340000       7
N              -3.33556000     -7.60669000      0.08895770       7
H               4.79499000      0.15187900     -6.78498000       1
I              -1.22815000     -7.05864000      4.32607000      53
C               5.24043000     -3.22631000      5.72611000       6
H              -5.21023000     -6.63933000      0.11245300       1
H               0.94148200      7.32429000     -4.14910000       1
H               0.44716300      8.37786000     -1.41485000       1
N               1.10639000      4.54522000      7.11092000       7
I               6.73631000      3.59820000     -3.76892000      53
I              -2.05732000     -7.37336000     -3.76892000      53
I               2.26146000      8.17021000      1.13705000      53
H               4.92744000     -2.64414000      6.59543000       1
H              -0.42482800      4.76629000     -7.24995000       1
H               2.13737000      7.87726000     -3.10595000       1
N               1.13642000      7.98332000     -3.36908000       7
H               1.00584000     -5.46571000      6.74746000       1
P              -3.88959000      5.85437000     -5.19925000      15
H               0.94684400      5.50584000      6.74746000       1
H              -8.71219000      0.40396500      1.04544000       1
H               8.19043000     -0.45176600      3.16226000       1
H               5.02734000     -4.28663000      5.87714000       1
H              -8.34647000     -2.59369000     -1.41485000       1
P               5.02202000     -5.11718000     -5.19925000      15
H               2.10735000      4.43916000      7.37405000       1
N              -7.65721000     -2.98823000     -3.36908000       7
H              -7.81676000     -2.02762000     -3.73254000       1
H              -3.50702000     -8.14562000      0.95839200       1
I              -6.54557000      4.43259000     -4.15472000      53
H               6.30401000     -3.07445000      5.52862000       1
P              -8.28533000      2.29170000     -2.63695000      15
H              -8.07215000      0.25110100      3.96099000       1
H              -3.60864000     -8.21752000     -0.70691700       1
I              -2.09229000      0.01516150     -8.78788000      53
H               8.99305000      0.40396500      1.04544000       1
H              -0.82830200      4.33394000      7.92415000       1
H               8.11334000     -3.19951000     -2.55585000       1
P               0.62628900     -8.67985000     -2.63695000      15
H               8.39777000      1.32819000      3.23004000       1
I              -4.11123000      7.77282000     -2.60020000      53
H               0.40547000      3.21010000      8.58567000       1
I              -6.57560000      0.99448900      6.32528000      53
P               4.96303000      5.85437000     -5.19925000      15
C               0.20647100      4.23330000      8.25938000       6
H               1.31863000      2.85832000     -8.74753000       1
I              -5.67635000     -6.48136000      3.59883000      53
C              -8.79377000      0.36884000      3.15155000       6
N               5.51706000     -7.60669000      0.08895770       7
I              -5.64632000     -3.04326000     -6.88117000      53
C              -8.55713000     -3.30016000     -2.22062000       6
N               0.82645800      3.77092000     -8.62660000       7
C               8.91148000      0.36884000      3.15155000       6
I               4.74139000      7.77282000     -2.60020000      53
I               0.75924200      7.79674000      5.33204000      53
H              -4.14665000      7.68534000      3.69502000       1
I               6.70628000      0.16010100      6.71108000      53
I              -8.00436000      0.26328300     -5.14795000      53
I              -8.62535000      4.09731000      0.03091960      53
H              -0.36583400     -6.20527000     -7.24995000       1
H               0.97045200     -7.08537000      6.33090000       1
I               7.56548000      3.91292000      4.32607000      53
H              -8.35813000     -4.32336000     -1.89433000       1
H              -7.85215000     -3.64727000     -4.14910000       1
I              -3.85467000      3.98364000     -7.86141000      53
I               2.35048000      0.63674800     -9.34295000      53
N               1.16539000     -6.42633000      7.11092000       7
I              -1.25712000      7.35101000     -6.15393000      53
H              -3.88427000      6.68492000      5.87714000       1
H               4.70597000      7.68534000      3.69502000       1
H               0.97686800      8.94394000     -3.73254000       1
H               5.24398000     -8.21752000     -0.70691700       1
H               5.34560000     -8.14562000      0.95839200       1
H               0.86949600     -7.28236000     -6.51900000       1
H               9.35878000     -2.59369000     -1.41485000       1
N               9.64906000      0.33281800      1.85340000       7
H               6.53285000     -7.38950000      0.01354280       1
I              -4.14126000      4.33472000      7.87979000      53
H               1.52108000      4.52889000     -8.69957000       1
H               3.38844000      8.07562000      4.68116000       1
H              -9.30748000      1.32819000      3.23004000       1
I               9.07990000      4.09731000      0.03091960      53
I               3.14269000     -2.53762000      9.10955000      53
C               9.14811000     -3.30016000     -2.22062000       6
H              -2.60761000      7.89711000      5.52862000       1
H              -9.51481000     -0.45176600      3.16226000       1
