200
cutoff_factor=1.20000000 nneightol=1.20000000 Lattice="28.63019000       0.00000000       0.00000000       0.00000000      28.33902000       0.00000000       0.00000000       0.00000000      29.78905000" Properties=species:S:1:pos:R:3:Z:I:1
P               0.53093000     -1.60977000     -0.65501300      15
I              -2.04425000     -0.03259830      0.36094200      53
I               2.47223000      0.51971900      0.88450200      53
H               0.52961400      3.04312000      0.54622700       1
H               0.11195300      2.70605000     -1.82862000       1
I               0.66138700      0.38305900     -3.19136000      53
H               1.36679000     -0.16025200      3.24915000       1
N              -0.10253600      3.62012000     -1.38296000       7
C               0.73828400      3.84196000     -0.16901400       6
H              -3.56173000      0.18182700     -1.70041000       1
H              -1.11394000      3.64449000     -1.13991000       1
I               0.69544100     -3.35110000      2.02745000      53
H               1.78893000      3.82218000     -0.46749700       1
I              -1.24696000     -3.73468000     -2.18805000      53
N               1.42193000     -0.18105900      4.28737000       7
H              -3.54479000     -2.09063000      1.88329000       1
H               3.92268000      0.75763500     -2.34365000       1
H              -0.60941900      0.27491000      4.63660000       1
P              -3.82550000      2.07881000      1.99012000      15
I               3.24672000     -3.08770000     -1.69299000      53
H              -2.81163000     -0.54701400     -3.88868000       1
H               0.06391520      4.36400000     -2.08696000       1
H               0.47931100      4.81353000      0.25801600       1
H              -2.58907000     -3.60678000      1.99598000       1
H               0.49581500      1.68908000      4.57002000       1
N              -4.25301000      0.06980980     -2.47388000       7
I              -1.28102000      3.59036000      3.13723000      53
H               4.26622000     -0.88095100     -2.35040000       1
H               1.37256000     -1.16638000      4.61734000       1
C               0.37053900      0.66359600      4.92266000       6
H               2.37826000      0.14956300      4.52916000       1
H               3.35193000     -3.44961000      1.92387000       1
H              -3.19679000      1.20512000     -3.90357000       1
C              -3.52041000     -3.10898000      2.27524000       6
C              -3.60680000      0.19834300     -3.81431000       6
N               4.68013000      0.06980980     -2.47388000       7
H              -4.66692000     -0.88095100     -2.35040000       1
H               0.48505200     -2.94174000     -4.48968000       1
I              -3.75274000      3.91018000     -0.66102000      53
H              -5.01046000      0.75763500     -2.34365000       1
H               5.37141000      0.18182700     -1.70041000       1
H               4.31183000     -3.89078000      0.64510000       1
H              -3.64121000     -3.10023000      3.36005000       1
P               5.10764000      2.07881000      1.99012000      15
N               4.27127000     -3.86767000      1.68353000       7
H               0.50152300      0.61693200      6.00546000       1
H              -4.62131000     -3.89078000      0.64510000       1
H               5.38835000     -2.09063000      1.88329000       1
I              -3.97574000      0.23804300      4.62000000      53
H               0.45183200     -6.20027000      0.25801600       1
H               0.47934300     -1.86959000     -5.92512000       1
N              -4.66187000     -3.86767000      1.68353000       7
I               3.18911000      4.22542000      3.39574000      53
C               0.35406800     -2.89507000     -5.57249000       6
P               0.58004700      2.13901000     -5.90576000      15
H              -4.36522000      0.02376370     -4.57935000       1
I              -1.97685000      3.68227000     -4.77598000      53
H               4.56792000      0.02376370     -4.57935000       1
I               5.18040000      3.91018000     -0.66102000      53
I              -6.46091000      0.51971900      0.88450200      53
C               5.32634000      0.19834300     -3.81431000       6
I               2.41999000      4.32462000     -4.36830000      53
C               5.41273000     -3.10898000      2.27524000       6
I              -5.68642000     -3.08770000     -1.69299000      53
H              -0.62589100     -3.28376000     -5.85854000       1
H               4.23328000     -4.84416000      2.04553000       1
I               4.95740000      0.23804300      4.62000000      53
H              -5.58121000     -3.44961000      1.92387000       1
I               6.88888000     -0.03259830      0.36094200      53
H               0.03643630     -6.64980000     -2.08696000       1
H               5.29193000     -3.10023000      3.36005000       1
H               5.73635000      1.20512000     -3.90357000       1
P               0.56903900     -5.31612000      4.58939000      15
H              -4.69986000     -4.84416000      2.04553000       1
I              -1.98786000     -3.77286000      5.71917000      53
C               0.71080500     -7.17184000     -0.16901400       6
H               2.36179000     -3.40911000     -5.96598000       1
H               6.12151000     -0.54701400     -3.88868000       1
I               2.40898000     -3.13051000      6.12684000      53
P              -3.87928000     -5.24503000     -3.28793000      15
P               0.59651800      5.69768000      4.58939000      15
N               1.40546000     -3.73973000     -6.20777000       7
H               1.76145000     -7.19162000     -0.46749700       1
I              -1.29749000      0.03169200     -7.35791000      53
N              -0.13001500     -7.39368000     -1.38296000       7
H              -1.14141000     -7.36931000     -1.13991000       1
H               6.34406000     -3.60678000      1.99598000       1
H               1.35609000     -4.72505000     -5.87780000       1
P              -3.85180000      5.76877000     -3.28793000      15
I              -1.21948000      7.27912000     -2.18805000      53
H               4.26075000      6.16964000      2.04553000       1
H              -2.79515000      3.01166000      6.60646000       1
I               3.17264000      0.66674700     -7.09940000      53
I              -3.99221000     -3.32063000     -5.87515000      53
I              -5.74403000      4.22542000      3.39574000      53
I               0.72292000      7.66270000      2.02745000      53
H              -6.55488000      0.14956300      4.52916000       1
P               5.05386000     -5.24503000     -3.28793000      15
H              -4.67238000      6.16964000      2.04553000       1
H               0.50213500     -7.97068000      0.54622700       1
I              -3.78022000     -7.10362000     -0.66102000      53
H              -2.56159000      7.40702000      1.99598000       1
H              -7.14421000      3.82218000     -0.46749700       1
I              -1.30850000     -7.42344000      3.13723000      53
H              -4.34875000      3.58243000      5.91579000       1
I               3.16163000     -6.78838000      3.39574000      53
H              -7.56635000     -0.16025200      3.24915000       1
H               1.35032000     -3.71892000     -7.24600000       1
H               4.58439000      3.58243000      5.91579000       1
I               0.67785800      3.94173000      7.30378000      53
I               2.39251000     -6.68918000     -4.36830000      53
P              -3.86280000     -1.68636000      7.20721000      15
P               5.08134000      5.76877000     -3.28793000      15
I               4.94093000     -3.32063000     -5.87515000      53
H               4.33931000      7.12302000      0.64510000       1
I              -1.23048000     -0.17600500      8.30709000      53
C              -3.59033000      3.75701000      6.68084000       6
H              -4.59383000      7.12302000      0.64510000       1
H               3.37941000      7.56419000      1.92387000       1
H               0.08447450     -8.30775000     -1.82862000       1
N               4.29874000      7.14613000      1.68353000       7
P              -8.40221000     -1.60977000     -0.65501300      15
N              -7.51120000     -0.18105900      4.28737000       7
N              -4.63439000      7.14613000      1.68353000       7
H               7.81920000      3.64449000     -1.13991000       1
H               1.38357000      6.28875000     -5.87780000       1
H              -3.18031000      4.76379000      6.59158000       1
I               3.27420000      7.92610000     -1.69299000      53
I               5.15292000     -7.10362000     -0.66102000      53
I               7.68618000     -3.73468000     -2.18805000      53
I              -8.27175000      0.38305900     -3.19136000      53
H              -7.56057000     -1.16638000      4.61734000       1
C              -3.49293000      7.90482000      2.27524000       6
H              -8.40352000      3.04312000      0.54622700       1
I              -6.51315000      4.32462000     -4.36830000      53
H               0.05290780     -3.09113000      8.40819000       1
P               5.07033000     -1.68636000      7.20721000      15
I              -2.00433000     -7.33153000     -4.77598000      53
I               7.65212000      3.59036000      3.13723000      53
C              -8.19485000      3.84196000     -0.16901400       6
H              -3.63020000      4.35490000     -7.13509000       1
I              -8.23770000     -3.35110000      2.02745000      53
I              -5.76050000      0.66674700     -7.09940000      53
I               6.95628000      3.68227000     -4.77598000      53
H               0.51253100      8.07206000     -4.48968000       1
H              -3.61373000      7.91357000      3.36005000       1
C               5.34281000      3.75701000      6.68084000       6
I               3.26319000      0.47096500      8.80215000      53
H              -8.82118000      2.70605000     -1.82862000       1
I              -1.96038000      7.24094000      5.71917000      53
I               0.70644900      4.10403000     -8.46770000      53
P               0.55840900      9.40403000     -0.65501300      15
P              -3.84197000     -1.47986000     -8.50503000      15
I              -6.52416000     -3.13051000      6.12684000      53
H               6.13798000      3.01166000      6.60646000       1
H              -6.57135000     -3.40911000     -5.96598000       1
H               8.32372000      0.27491000      4.63660000       1
I              -5.77151000     -6.78838000      3.39574000      53
H              -5.55373000      7.56419000      1.92387000       1
H               4.28269000      2.67772000      8.14475000       1
H               9.04509000      2.70605000     -1.82862000       1
P               9.46407000     -1.60977000     -0.65501300      15
H              -3.20779000     -6.25001000      6.59158000       1
N               8.83060000      3.62012000     -1.38296000       7
N               1.43294000      7.27407000     -6.20777000       7
H              -2.57807000      3.84835000     -8.49916000       1
H              -0.59841200      7.73004000     -5.85854000       1
H              -8.45383000      4.81353000      0.25801600       1
H              -8.43732000      1.68908000      4.57002000       1
H              -4.65045000      2.67772000      8.14475000       1
I               6.94528000     -3.77286000      5.71917000      53
N              -4.23654000      3.62848000      8.02126000       7
H              -3.51731000      8.92317000      1.88329000       1
H               4.24428000      2.61097000     -8.44962000       1
N              -9.03567000      3.62012000     -1.38296000       7
C               0.38154700      8.11873000     -5.57249000       6
C               5.44021000      7.90482000      2.27524000       6
H               0.10094600     -4.74908000      8.66652000       1
I              -5.65894000      7.92610000     -1.69299000      53
N              -0.11354300     -3.83501000      9.11218000       7
C              -8.56260000      0.66359600      4.92266000       6
H               5.30293000      4.35490000     -7.13509000       1
P              -3.85298000     -8.93499000      1.99012000      15
C              -3.50940000      4.34615000     -8.21990000       6
H               9.46275000      3.04312000      0.54622700       1
H               2.38927000      7.60469000     -5.96598000       1
H               5.75282000      4.76379000      6.59158000       1
H               6.37154000      7.40702000      1.99598000       1
H               0.51314200     -0.51555300     -9.94892000       1
N               4.69660000      3.62848000      8.02126000       7
H              -8.44809000     -2.94174000     -4.48968000       1
H              -4.68885000      2.61097000     -8.44962000       1
P               5.09117000     -1.47986000     -8.50503000      15
H               3.93915000      4.31630000      8.15149000       1
H               3.36294000      4.00552000     -8.57127000       1
P               0.54740200      1.94890000      9.84013000      15
H              -8.86922000      4.36400000     -2.08696000       1
H               5.31941000      7.91357000      3.36005000       1
I               9.59452000      0.38305900     -3.19136000      53
H              -1.12494000     -3.81064000      9.35523000       1
