200
cutoff_factor=1.20000000 nneightol=1.20000000 Lattice="28.80145000       0.00000000       0.00000000       0.00000000      29.23954000       0.00000000       0.00000000       0.00000000      27.56352000" Properties=species:S:1:pos:R:3:Z:I:1
I               0.70153500      1.43521000     -0.37085400      53
H              -1.97525000      1.01807000     -0.56335900       1
H               0.12540800     -2.68669000      0.63919700       1
H               0.60070700     -2.13552000     -1.69271000       1
H               2.00872000     -2.04352000     -0.76738900       1
H              -2.82338000      0.64222300      0.82520800       1
N              -2.91919000      0.77217900     -0.20268800       7
N               1.28178000     -2.68427000     -1.12476000       7
H              -3.19002000     -0.15050200     -0.59483000       1
P               0.84459600      1.45035000      2.81291000      15
C               0.59871400     -3.41748000     -0.02061830       6
I              -1.77100000     -0.51726700      2.97363000      53
I              -0.97119200     -1.14860000     -3.46975000      53
P               0.87082600      1.56211000     -3.59730000      15
I               2.62344000     -1.22159000      2.81539000      53
H              -0.15199000     -4.08037000     -0.45728200       1
H               1.73563000     -3.35164000     -1.78641000       1
H               1.34732000     -3.99589000      0.52568800       1
C              -3.92060000      1.82891000     -0.54319900       6
H               4.08506000      1.53299000     -0.13314900       1
H              -3.59125000      2.77246000     -0.10211900       1
I              -3.69076000     -2.85587000     -0.37743200      53
H              -3.97644000      1.91455000     -1.63090000       1
H              -0.10526600      4.89467000     -0.45728200       1
I               3.44813000     -0.38808600     -3.52263000      53
I              -1.09738000      4.00019000      2.89740000      53
H              -4.88890000      1.53299000     -0.13314900       1
I              -1.72544000      3.38851000     -3.51713000      53
H               1.39404000      4.97915000      0.52568800       1
H               1.20033000     -2.33927000      4.61925000       1
H              -0.37143100     -1.93821000      4.96935000       1
C               5.05336000      1.82891000     -0.54319900       6
I               3.40959000      3.30150000      2.74179000      53
H               4.99752000      1.91455000     -1.63090000       1
C               0.64543800      5.55757000     -0.02061830       6
P              -3.77433000     -3.09307000      2.80725000      15
N               0.35064100     -2.66177000      5.13156000       7
H               5.78394000     -0.15050200     -0.59483000       1
H               0.00762623     -3.52374000      4.65471000       1
I              -1.14410000     -4.97486000      2.89740000      53
P              -3.61907000     -2.99705000     -3.60549000      15
H              -3.17354000      1.20656000      4.86804000       1
H              -0.04072550     -2.09683000     -5.61338000       1
I               5.28320000     -2.85587000     -0.37743200      53
H               5.38271000      2.77246000     -0.10211900       1
N               6.05477000      0.77217900     -0.20268800       7
I               2.75569000      4.14114000     -3.59882000      53
H               1.78235000      5.62341000     -1.78641000       1
H               6.15058000      0.64222300      0.82520800       1
I               0.96264800      1.45719000      6.04080000      53
H               0.17213200      6.28836000      0.63919700       1
N               1.32851000      6.29078000     -1.12476000       7
I              -5.52583000     -0.38808600     -3.52263000      53
I               2.70896000     -4.83390000     -3.59882000      53
P               5.19963000     -3.09307000      2.80725000      15
I              -1.77216000     -5.58654000     -3.51713000      53
H              -2.98396000      0.89503500     -6.15524000       1
C              -3.33491000      1.24313000      5.94684000       6
I               0.83659800      1.35271000     -6.80411000      53
N               0.15421000     -2.19961000     -6.63125000       7
I              -5.56437000      3.30150000      2.74179000      53
I              -6.35052000     -1.22159000      2.81539000      53
H               0.64743100      6.83952000     -1.69271000       1
H              -2.42697000      1.57031000      6.45861000       1
H               6.99871000      1.01807000     -0.56335900       1
H               0.40816200     -1.25075000     -6.97433000       1
H               3.66260000      1.97037000      5.76730000       1
P               5.35489000     -2.99705000     -3.60549000      15
I              -3.64404000      6.11918000     -0.37743200      53
I               3.36286000     -5.67354000      2.74179000      53
H               0.05435030      5.45130000      4.65471000       1
H              -3.63797000     -6.20259000     -0.10211900       1
C               0.60811400     -2.87630000      6.58585000       6
H              -3.41033000      2.60960000     -5.83487000       1
H               2.05545000      6.93153000     -0.76738900       1
H              -6.96524000     -2.04352000     -0.76738900       1
H              -3.65566000      0.26810600      6.32077000       1
H               2.14144000     -2.86306000     -6.39133000       1
H               4.29021000      1.34811000     -5.79452000       1
H               0.94850500     -1.93208000      7.01508000       1
C              -3.75072000      1.66537000     -6.26410000       6
P              -3.72761000      5.88198000      2.80725000      15
H              -0.74296000     -2.46301000     -7.08265000       1
H              -4.68375000      1.34811000     -5.79452000       1
I               0.65481100     -7.53984000     -0.37085400      53
H               5.80042000      1.20656000      4.86804000       1
C               1.23349000     -3.19025000     -6.90311000       6
H               1.37487000     -3.64664000      6.69471000       1
H              -0.32491500     -3.19357000      7.05543000       1
H               0.91274500     -4.16527000     -6.52917000       1
I               7.20296000     -0.51726700      2.97363000      53
I              -3.77853000     -3.18897000      6.04584000      53
P              -3.57235000      5.97799000     -3.60549000      15
H              -4.16024000      3.18262000      5.87561000       1
N              -4.41419000      2.23376000      6.21869000       7
N               4.55977000      2.23376000      6.21869000       7
P               0.79787200     -7.52470000      2.81291000      15
H              -5.31137000      1.97037000      5.76730000       1
I               5.32992000      6.11918000     -0.37743200      53
N               0.39736500      6.31327000      5.13156000       7
H               0.95946900      4.80978000     -6.52917000       1
H              -7.23833000     -3.35164000     -1.78641000       1
H               1.24706000      6.63578000      4.61925000       1
H               5.33599000     -6.20259000     -0.10211900       1
I              -3.44291000     -2.97618000     -6.80914000      53
C              -3.96732000     -7.14614000     -0.54319900       6
N              -7.69218000     -2.68427000     -1.12476000       7
H              -2.02198000     -7.95697000     -0.56335900       1
H               4.81372000      3.18262000      5.87561000       1
H               5.31830000      0.26810600      6.32077000       1
P               0.82410200     -7.41294000     -3.59730000      15
H              -4.02317000     -7.06050000     -1.63090000       1
C               5.63905000      1.24313000      5.94684000       6
I              -6.21827000      4.14114000     -3.59882000      53
C               5.22324000      1.66537000     -6.26410000       6
P               5.24635000      5.88198000      2.80725000      15
I              -8.27243000      1.43521000     -0.37085400      53
I              -5.61110000     -5.67354000      2.74179000      53
H               4.03833000     -7.44205000     -0.13314900       1
H               5.56363000      2.60960000     -5.83487000       1
I               5.19543000     -3.18897000      6.04584000      53
I              -0.92446700      7.82645000     -3.46975000      53
H              -0.32470700      7.03684000      4.96935000       1
H              -7.62664000     -3.99589000      0.52568800       1
H               5.99000000      0.89503500     -6.15524000       1
I               2.67016000      7.75346000      2.81539000      53
H               1.42159000      5.32841000      6.69471000       1
I              -6.26500000     -4.83390000     -3.59882000      53
H               1.39487000     -3.22682000     -7.98191000       1
P              -8.12936000      1.45035000      2.81291000      15
N              -2.96592000     -8.20287000     -0.20268800       7
I               7.24853000      3.38851000     -3.51713000      53
C               5.00664000     -7.14614000     -0.54319900       6
H               4.36483000      2.33654000      7.23656000       1
H               4.95079000     -7.06050000     -1.63090000       1
I               8.00277000     -1.14860000     -3.46975000      53
H              -8.37325000     -2.13552000     -1.69271000       1
P               5.40161000      5.97799000     -3.60549000      15
H              -2.87011000     -8.33282000      0.82520800       1
H               0.00599858      6.87822000     -5.61338000       1
H              -4.60913000      2.33654000      7.23656000       1
N              -4.00819000      1.87990000     -7.71839000       7
H              -4.93563000     -7.44205000     -0.13314900       1
C               0.65483800      6.09874000      6.58585000       6
P              -8.10314000      1.56211000     -3.59730000      15
C              -8.37525000     -3.41748000     -0.02061830       6
H              -7.57992000      4.97915000      0.52568800       1
H              -3.15850000      2.20241000     -8.23070000       1
C               1.28021000      5.78480000     -6.90311000       6
H               2.18816000      6.11198000     -6.39133000       1
H              -0.27819000      5.78148000      7.05543000       1
I              -1.72427000      8.45778000      2.97363000      53
I              -3.73181000      5.78608000      6.04584000      53
H              -4.20697000     -5.79243000      5.87561000       1
I               5.53105000     -2.97618000     -6.80914000      53
H              -8.84855000     -2.68669000      0.63919700       1
I               7.87659000      4.00019000      2.89740000      53
H              -3.45705000     -6.36545000     -5.83487000       1
H              -7.19161000      5.62341000     -1.78641000       1
H               4.24370000      2.60347000     -7.88060000       1
H               6.54699000      1.57031000      6.45861000       1
H              -4.35121000      1.01793000     -8.19524000       1
H              -7.77363000     -2.33927000      4.61925000       1
N               4.96577000      1.87990000     -7.71839000       7
H              -3.14330000      8.82455000     -0.59483000       1
P               0.78648300      1.43632000      9.24446000      15
I              -1.85944000     -0.40053100      9.25113000      53
H               4.62276000      1.01793000     -8.19524000       1
N               0.20093400      6.77544000     -6.63125000       7
H               9.09937000     -2.68669000      0.63919700       1
H               4.76699000     -5.79243000      5.87561000       1
H              -4.73026000      2.60347000     -7.88060000       1
H              -0.69623600      6.51204000     -7.08265000       1
I               0.91592400     -7.51786000      6.04080000      53
I              -3.39618000      5.99887000     -6.80914000      53
H              -3.23675000     -9.12555000     -0.59483000       1
H              -3.22026000     -7.76849000      4.86804000       1
I               7.82986000     -4.97486000      2.89740000      53
H               8.82197000     -4.08037000     -0.45728200       1
I               2.63340000     -1.15316000      9.33282000      53
H               3.61587000     -7.00468000      5.76730000       1
I               7.20180000     -5.58654000     -3.51713000      53
H              -6.83252000     -2.86306000     -6.39133000       1
I               9.67550000      1.43521000     -0.37085400      53
H              -6.91851000      6.93153000     -0.76738900       1
I               5.24215000      5.78608000      6.04584000      53
I               3.49485000      8.58696000     -3.52263000      53
H               1.44159000      5.74823000     -7.98191000       1
H               9.57467000     -2.13552000     -1.69271000       1
N              -7.64546000      6.29078000     -1.12476000       7
H               0.99522900      7.04297000      7.01508000       1
H              -9.12595000     -4.08037000     -0.45728200       1
C              -8.32852000      5.55757000     -0.02061830       6
H              -2.77666000      9.61727000      0.82520800       1
I              -1.81772000     -9.49231000      2.97363000      53
H               8.60253000     -1.93821000      4.96935000       1
H              -2.47369000     -7.40474000      6.45861000       1
I              -8.01131000      1.45719000      6.04080000      53
H               8.86869000      4.89467000     -0.45728200       1
N              -2.87247000      9.74723000     -0.20268800       7
