200
cutoff_factor=1.20000000 nneightol=1.20000000 Lattice="29.31039000       0.00000000       0.00000000       0.00000000      28.81062000       0.00000000       0.00000000       0.00000000      28.90981000" Properties=species:S:1:pos:R:3:Z:I:1
H              -0.39753700      1.37362000     -0.72558300       1
H               0.08965280      0.69757000     -2.17239000       1
N              -0.59055400      1.35537000     -1.75139000       7
I               0.59966900      1.69352000      1.57556000      53
I               0.69236400     -2.09062000     -1.06352000      53
H              -2.11938000     -0.09490640     -1.66601000       1
C              -1.97492000      0.90804800     -2.07408000       6
P               2.91138000     -0.50863300      0.67744600      15
H              -0.38031400      2.30297000     -2.13554000       1
H              -0.98866500     -0.81147400      3.03543000       1
H              -2.67592000      1.61087000     -1.61938000       1
H              -2.09048000     -2.66450000      1.88063000       1
H              -2.09233000      0.89870700     -3.16018000       1
H              -0.60249400     -3.14107000      2.52690000       1
I               3.40656000      1.16086000     -2.01551000      53
C              -1.50427000     -1.59056000      3.60175000       6
N              -1.56341000     -2.81921000      2.76380000       7
I               2.19259000     -2.40271000      3.11095000      53
H              -2.30161000      3.80549000      0.94325800       1
I              -3.80041000     -2.68660000     -0.12196600      53
H              -2.52616000     -1.28257000      3.83435000       1
H               1.13806000     -1.93566000     -4.21647000       1
H              -0.74433300      4.68028000      1.12590000       1
P              -1.56688000     -4.25975000     -1.85690000      15
H              -0.95597700     -1.82376000      4.51759000       1
I              -4.16029000      1.35925000      2.38645000      53
H               3.32226000     -2.08185000     -3.24119000       1
C              -1.83220000      4.77784000      1.10925000       6
H              -2.04935000     -3.59900000      3.25699000       1
I               0.32766500      4.64512000     -2.69155000      53
I               0.58309100      0.76586600     -5.30717000      53
I              -2.21398000     -2.41757000     -4.35519000      53
P               2.55342000      3.57482000      3.27143000      15
I               4.85345000      1.35925000      2.38645000      53
N               1.81259000     -2.61535000     -4.61400000       7
H               3.34900000     -4.63018000      0.12114400       1
H               1.59828000     -3.54480000     -4.19242000       1
H              -1.88511000      5.32556000     -0.93429600       1
H               1.87928000     -5.46009000     -0.02606560       1
C               3.19349000     -2.13663000     -4.32461000       6
H              -0.90864800      1.47464000      5.54695000       1
I               5.21333000     -2.68660000     -0.12196600      53
H              -3.20175000      1.66121000      4.66881000       1
I              -0.62436500     -5.82934000      0.76758600      53
H               3.31995000     -1.14909000     -4.77419000       1
H              -2.19057000      5.21953000      2.04202000       1
I              -5.60718000      1.16086000     -2.01551000      53
N              -2.20831000      5.68482000     -0.01642520       7
P               2.78201000      2.96840000     -4.59563000      15
P              -6.10236000     -0.50863300      0.67744600      15
N               2.91779000     -5.56685000     -0.01642520       7
I               3.26327000      5.42233000      0.76758600      53
H               1.60562000     -2.66127000     -5.63704000       1
H              -1.48742000      3.17339000      5.53165000       1
I               1.99239000      1.90491000      5.95065000      53
C              -1.61388000      2.18585000      5.98123000       6
H              -3.24682000      5.79158000     -0.02606560       1
N              -2.99478000      1.70713000      5.69185000       7
H               6.33782000      1.61087000     -1.61938000       1
H               3.89872000     -2.84784000     -4.75890000       1
H               3.24099000     -5.92612000     -0.93429600       1
H              -1.77710000      6.62149000      0.12114400       1
H              -5.69148000     -2.08185000     -3.24119000       1
I               0.71268600     -5.84210000     -3.58857000      53
H              -3.20909000      0.77768200      6.11342000       1
H               2.93553000     -6.03214000      2.04202000       1
I               0.32581200      5.76791000      4.11591000      53
H               6.89436000     -0.09490640     -1.66601000       1
P              -1.65295000     -0.74765300     -7.03441000      15
H              -5.66474000     -4.63018000      0.12114400       1
C               3.29390000     -6.47384000      1.10925000       6
C               7.03882000      0.90804800     -2.07408000       6
I              -3.88056000      1.44544000     -6.18993000      53
H              -3.66931000      2.38682000      6.08937000       1
H              -5.69379000     -1.14909000     -4.77419000       1
H              -5.11502000     -2.84784000     -4.75890000       1
H              -1.48511000      2.24062000      7.06465000       1
C              -5.82025000     -2.13663000     -4.32461000       6
P               2.32076000      6.99192000     -1.85690000      15
P               3.10075000     -3.96080000      5.71022000      15
H               5.81199000      1.66121000      4.66881000       1
H               6.48758000     -1.28257000      3.83435000       1
H               6.92325000     -2.66450000      1.88063000       1
H               6.92140000      0.89870700     -3.16018000       1
I              -3.56182000     -5.48376000      4.11591000      53
H               6.71212000      3.80549000      0.94325800       1
H              -1.27471000      5.10543000     -5.78825000       1
I              -4.41341000      5.40957000     -3.58857000      53
I              -6.82114000     -2.40271000      3.11095000      53
I              -5.75047000      5.42233000      0.76758600      53
I               4.60032000      5.40957000     -3.58857000      53
I              -3.55997000     -6.60655000     -2.69155000      53
I               0.64639700     -2.28407000      7.61429000      53
H               4.38177000     -6.57140000      1.12590000       1
I               0.90182300     -6.16333000      4.99868000      53
I              -4.09468000     -1.51963000      6.71728000      53
H               2.82449000     -7.44618000      0.94325800       1
P              -6.46032000      3.57482000      3.27143000      15
H              -4.63197000     -6.57140000      1.12590000       1
H              -2.36808000      3.33019000     -7.04885000       1
I               5.13318000      1.44544000     -6.18993000      53
H               5.76691000      5.79158000     -0.02606560       1
N              -6.09595000     -5.56685000     -0.01642520       7
I              -4.22428000      5.08834000      4.99868000      53
P              -6.23172000      2.96840000     -4.59563000      15
H              -5.77275000     -5.92612000     -0.93429600       1
I               6.79976000     -2.41757000     -4.35519000      53
N               7.45033000     -2.81921000      2.76380000       7
H               5.34443000      2.38682000      6.08937000       1
P              -1.33422000     -7.67685000      3.27143000      15
N               6.01896000      1.70713000      5.69185000       7
I               4.91905000     -1.51963000      6.71728000      53
H               5.80465000      0.77768200      6.11342000       1
C               7.50947000     -1.59056000      3.60175000       6
I               0.64707800     -2.96322000     -7.91939000      53
H               6.96439000     -3.59900000      3.25699000       1
H               1.83829000      7.65267000      3.25699000       1
I               0.08722510      8.56507000     -0.12196600      53
I               4.78946000      5.08834000      4.99868000      53
H               8.02507000     -0.81147400      3.03543000       1
I              -8.32137000     -2.09062000     -1.06352000      53
C               7.18153000      4.77784000      1.10925000       6
H              -0.92122600      3.78813000     -7.77894000       1
I               1.87386000      4.52649000     -7.19489000      53
N               8.42318000      1.35537000     -1.75139000       7
C              -5.71984000     -6.47384000      1.10925000       6
H               2.61680000      0.89705300     -8.26383000       1
I              -8.41407000      1.69352000      1.57556000      53
H               8.61620000      1.37362000     -0.72558300       1
I               5.45191000     -5.48376000      4.11591000      53
C              -1.82300000      5.33864000     -6.70409000       6
P               7.44686000     -4.25975000     -1.85690000      15
N              -1.88214000      4.10998000     -7.54204000       7
H              -6.07821000     -6.03214000      2.04202000       1
H               6.82316000      5.21953000      2.04202000       1
P               2.63949000      0.06272650      8.44894000      15
H               2.28121000     -5.60505000     -6.47150000       1
N               6.80542000      5.68482000     -0.01642520       7
N              -7.20115000     -2.61535000     -4.61400000       7
H               7.12863000      5.32556000     -0.93429600       1
H               1.79715000      8.58718000      1.88063000       1
I               5.45377000     -6.60655000     -2.69155000      53
H              -7.13446000     -5.46009000     -0.02606560       1
H              -2.84489000      5.64663000     -6.47150000       1
H               2.11404000      5.22118000      7.14567000       1
H               3.28514000      8.11060000      2.52690000       1
P              -5.91299000     -3.96080000      5.71022000      15
H              -7.87568000     -1.93566000     -4.21647000       1
N               2.32423000      8.43246000      2.76380000       7
H               8.63342000      2.30297000     -2.13554000       1
H              -8.92408000      0.69757000     -2.17239000       1
H              -7.41546000     -3.54480000     -4.19242000       1
H               3.85139000     -6.14624000     -5.78825000       1
H               8.41124000     -3.14107000      2.52690000       1
H               9.10339000      0.69757000     -2.17239000       1
H              -0.06158180     -4.62623000      8.17030000       1
I              -7.02134000      1.90491000      5.95065000      53
H               8.05776000     -1.82376000      4.51759000       1
H              -3.52782000      7.70688000     -4.19242000       1
P              -2.02535000      7.29087000      5.71022000      15
H              -1.77360000     -6.03049000      7.14567000       1
C               3.30310000     -5.91303000     -6.70409000       6
P              -1.10562000     -8.28328000     -4.59563000      15
H              -9.41127000      1.37362000     -0.72558300       1
H               8.26940000      4.68028000      1.12590000       1
H              -1.30740000      6.11772000     -7.27042000       1
H              -1.56638000     -1.60364000      9.37155000       1
I              -0.94309800      1.09985000     -9.53826000      53
C               2.97516000      0.45535800     -9.19659000       6
H              -7.40811000     -2.66127000     -5.63704000       1
H               3.81870000     -5.13395000     -7.27042000       1
H               2.50576000     -0.51698700     -9.36258000       1
H              -6.18925000     -7.44618000      0.94325800       1
H              -1.22738000      8.40384000     -4.75890000       1
H              -2.40921000      4.26470000     -8.42521000       1
C               7.39985000      2.18585000      5.98123000       6
I              -3.60670000     -2.62895000     -8.73028000      53
H               7.23664000      6.62149000      0.12114400       1
I              -2.93351000      8.84896000      3.11095000      53
H               2.08699000      4.22757000      8.63984000       1
P              -6.69298000      6.99192000     -1.85690000      15
N              -9.60429000      1.35537000     -1.75139000       7
H               7.52631000      3.17339000      5.53165000       1
I               9.61341000      1.69352000      1.57556000      53
H              -1.80384000      9.16982000     -3.24119000       1
H              -5.16235000     -6.14624000     -5.78825000       1
H              -9.39405000      2.30297000     -2.13554000       1
H               8.10509000      1.47464000      5.54695000       1
I               9.70610000     -2.09062000     -1.06352000      53
I               1.67366000      8.83410000     -4.35519000      53
I              -8.43065000      0.76586600     -5.30717000      53
C               2.23145000      5.23053000      8.23177000       6
I              -1.40081000      5.48334000      8.29033000      53
H               4.06303000      0.35780000     -9.17994000       1
I              -2.01378000     -6.72519000     -7.19489000      53
H               2.45018000     -9.64080000     -1.61938000       1
H              -4.26795000     -8.94870000     -2.13554000       1
P               7.36079000     -0.74765300     -7.03441000      15
I              -8.68607000      4.64512000     -2.69155000      53
N              -0.27182200     -5.57383000      8.55445000       7
