200
cutoff_factor=1.20000000 nneightol=1.20000000 Lattice="28.67680000       0.00000000       0.00000000       0.00000000      28.02025000       0.00000000       0.00000000       0.00000000      28.27027000" Properties=species:S:1:pos:R:3:Z:I:1
P               0.60538500     -1.79890000     -0.06669790      15
H              -0.02482900      2.23378000      0.37903700       1
I              -1.38603000     -0.17843700     -1.95369000      53
I               2.25699000      0.96694400      0.44990600      53
H              -1.69077000      1.99822000      0.45939900       1
N              -0.93541100      2.69805000      0.57694400       7
I              -1.14825000     -0.99482000      2.53017000      53
H              -0.93067600      2.99172000      1.57570000       1
H               2.47462000      0.37330000      2.95872000       1
H              -1.14084000      3.49337000     -1.36572000       1
H              -3.59841000     -1.65741000     -0.71843800       1
C              -1.15697000      3.85702000     -0.33618400       6
H               2.37665000     -0.15576300     -3.61773000       1
I               2.42392000     -2.48309000     -2.62870000      53
H              -0.35739400      4.58295000     -0.17355600       1
I              -1.05285000     -4.47800000     -0.39349900      53
I               2.71266000     -3.28208000      1.84323000      53
H               1.68830000      1.29718000     -4.16479000       1
H               1.77322000     -0.33861700      4.31699000       1
N               2.57987000      0.21308300      3.98381000       7
H              -2.12672000      4.29915000     -0.10090100       1
H              -0.44429300     -3.85251000      2.94157000       1
N               2.54931000      0.73618500     -4.13235000       7
C              -4.67565000     -1.78120000     -0.59603100       6
H               3.30102000      1.25473000     -3.62613000       1
H              -0.86498100     -3.87075000     -3.21671000       1
H              -4.62967000     -1.55604000      1.50247000       1
I              -4.43646000      1.94618000      1.81609000      53
H               1.77869000      2.08809000      4.52644000       1
H              -5.19093000     -0.82959400     -0.74559000       1
I              -0.85117600      3.23451000      4.16218000      53
H               3.44786000     -0.34463000      4.13895000       1
P              -2.96395000      0.80399600      4.49011000      15
P              -2.98478000      0.82547900     -4.48222000      15
N              -4.93645000     -2.24757000      0.79788500       7
P               4.33429000      3.40972000     -0.07960960      15
H              -4.45303000     -3.14544000      1.00018000       1
H               4.96727000     -2.43671000      0.94757300       1
C               2.69305000      1.51887000      4.69746000       6
H              -0.13643800     -3.13506000     -4.67984000       1
I               2.16499000      4.85129000     -1.94295000      53
C              -0.99969700     -3.67262000     -4.28073000       6
H              -1.91405000     -3.10340000     -4.45175000       1
H              -5.05450000     -2.53401000     -1.29047000       1
H               5.72710000     -0.82959400     -0.74559000       1
H               3.55631000      2.05642000      4.29835000       1
C              -0.63268900     -4.78860000      3.46997000       6
I              -1.55604000      3.71694000     -4.43488000      53
H               1.44093000     -6.09886000     -0.10090100       1
H              -1.40433000     -5.36764000      2.95990000       1
C               3.02494000      0.41792300     -5.50822000       6
I              -5.37656000      1.97599000     -2.68286000      53
I               3.02867000      4.95960000      2.50500000      53
H               2.25330000     -0.16111800     -6.01829000       1
N               5.98157000     -2.24757000      0.79788500       7
H               0.28725200     -5.37101000      3.54997000       1
I               5.54147000      1.97599000     -2.68286000      53
H              -5.95075000     -2.43671000      0.94757300       1
H              -1.96933000     -3.90935000      4.81340000       1
I              -0.66407500     -0.23189100     -6.47319000      53
H               5.86353000     -2.53401000     -1.29047000       1
C               6.24237000     -1.78120000     -0.59603100       6
H               2.82776000      1.32074000      5.76148000       1
H               3.21026000     -5.81506000     -0.17355600       1
H               6.28835000     -1.55604000      1.50247000       1
H              -0.35660400     -3.95179000      5.35206000       1
N              -1.10832000     -4.47034000      4.84584000       7
H               3.94488000     -0.16449300     -5.42822000       1
I              -4.54392000     -1.95698000     -4.81601000      53
H               3.21333000      1.35401000     -6.03662000       1
H              -3.28040000      5.02700000      3.54997000       1
C               2.41068000     -6.54099000     -0.33618400       6
I               6.48156000      1.94618000      1.81609000      53
I              -5.21367000     -1.48958000      4.54331000      53
N              -1.11287000     -4.97841000     -4.99438000       7
I              -1.49264000     -0.35522900      7.03524000      53
H               6.46500000     -3.14544000      1.00018000       1
I               1.88384000     -3.23053000      6.29533000      53
H              -0.24488100     -5.53612000     -4.83924000       1
I              -4.32170000     -5.43841000      2.50500000      53
I              -0.85498700      7.11592000      1.84323000      53
P              -6.58374000      3.40972000     -0.07960960      15
I               5.70436000     -1.48958000      4.54331000      53
H               2.42681000     -6.90464000     -1.36572000       1
H              -1.91953000     -5.53011000     -4.66120000       1
I              -4.62050000      5.92001000     -0.39349900      53
P               0.69367600      6.01052000     -4.48808000      15
H               7.31962000     -1.65741000     -0.71843800       1
P               0.70796400      6.01697000      4.49597000      15
P               4.26133000     -4.38749000     -4.48808000      15
P               4.27562000     -4.38104000      4.49597000      15
P              -3.01609000     -6.98829000     -0.07960960      15
H              -4.97198000      5.03037000      2.95990000       1
H              -1.28098000     -5.36228000      5.36046000       1
H              -1.21812000     -4.81819000     -6.01947000       1
C              -4.20034000      5.60941000      3.46997000       6
I              -5.18539000     -5.54672000     -1.94295000      53
H              -3.81253000      4.86189000     -4.83924000       1
H               2.89735000      7.25257000      1.00018000       1
H               2.63698000     -7.40629000      1.57570000       1
I               2.50938000      4.21170000     -6.44802000      53
H               1.39962000      7.96130000      0.94757300       1
N               2.63224000     -7.69996000      0.57694400       7
I               5.73264000     -5.54672000     -1.94295000      53
H              -4.01194000      6.54550000      2.94157000       1
I               6.37410000     -1.95698000     -4.81601000      53
H              -1.36175000      2.65748000      7.68772000       1
I               2.01161000     -6.68107000     -4.43488000      53
H              -0.79539700      2.06108000     -7.97800000       1
H               2.29587000      7.86400000     -1.29047000       1
H               5.94604000      5.03037000      2.95990000       1
I               2.78882000     -3.24531000     -7.16210000      53
H              -0.97204200      3.65048000     -7.47572000       1
I              -4.80135000      2.70840000      6.34948000      53
I              -1.14373000      7.91492000     -2.62870000      53
H              -4.43263000      6.52726000     -3.21671000       1
H              -7.61700000      1.25473000     -3.62613000       1
N               2.41392000      8.15044000      0.79788500       7
H              -7.47016000     -0.34463000      4.13895000       1
H               1.87688000     -8.39979000      0.45939900       1
I               6.29753000      5.92001000     -0.39349900      53
H               5.43084000      4.86790000     -4.66120000       1
I              -4.54773000      1.92444000     -7.13495000      53
I              -0.86880900     -8.45183000      1.81609000      53
H              -5.48718000      4.86790000     -4.66120000       1
I               2.71648000     -7.16350000      4.16218000      53
I              -8.66104000      0.96694400      0.44990600      53
N              -4.68052000      5.41960000     -4.99438000       7
H              -7.36172000      2.05642000      4.29835000       1
N              -1.27883000      2.95896000     -8.18030000       7
H              -2.29313000      2.76981000     -8.03062000       1
H              -4.84863000      5.03573000      5.36046000       1
H              -6.97314000     -0.16449300     -5.42822000       1
H               3.54282000     -8.16423000      0.37903700       1
I               6.59632000     -5.43841000      2.50500000      53
I               2.30672000      5.01305000      7.02450000      53
H              -8.44340000      0.37330000      2.95872000       1
N              -4.67597000      5.92767000      4.84584000       7
H               0.09433890      3.53408000      8.25975000       1
H              -4.62342000     -2.19977000     -7.40249000       1
I               2.63990000      0.71348700      8.58469000      53
I              -1.80891000     -8.42202000     -2.68286000      53
I              -8.20536000     -3.28208000      1.84323000      53
C               2.67472000      8.61681000     -0.59603100       6
P              -2.96227000      8.59911000     -0.06669790      15
C              -0.98290800      3.41029000      8.38216000       6
P               0.67665800     -1.79680000      8.89858000      15
P              -6.64241000     -4.38104000      4.49597000      15
P              -6.65670000     -4.38749000     -4.48808000      15
P               7.93324000      0.82547900     -4.48222000      15
H              -4.79847000     -1.71316000      7.61247000       1
P               7.95407000      0.80399600      4.49011000      15
C              -4.56735000      6.72539000     -4.28073000       6
I               6.11667000      2.70840000      6.34948000      53
I              -8.49410000     -2.48309000     -2.62870000      53
N              -8.33815000      0.21308300      3.98381000       7
H              -3.92426000      6.44622000      5.35206000       1
P               0.64154100     -1.78177000     -9.05780000      15
H              -8.54137000     -0.15576300     -3.61773000       1
N              -8.36872000      0.73618500     -4.13235000       7
H               2.72070000      8.84197000      1.50247000       1
H              -3.70409000      7.26295000     -4.67984000       1
C               6.71768000      5.60941000      3.46997000       6
H              -1.49818000      4.36189000      8.23260000       1
H               9.22725000      1.99822000      0.45939900       1
H              -4.78578000      5.57982000     -6.01947000       1
H               6.06939000      5.03573000      5.36046000       1
H               3.75197000      8.74060000     -0.71843800       1
C              -8.22498000      1.51887000      4.69746000       6
I              -1.43576000     -4.22454000     -8.52828000      53
C              -7.89308000      0.41792300     -5.50822000       6
I              -7.88935000      4.95960000      2.50500000      53
N               6.23750000      5.41960000     -4.99438000       7
H              -7.70777000     -5.81506000     -0.17355600       1
I              -1.68381000      7.16748000      6.29533000      53
H              -4.01502000     -0.62356700      8.80463000       1
H               5.38104000      6.48866000      4.81340000       1
I               9.53199000     -0.17843700     -1.95369000      53
H               6.48539000      6.52726000     -3.21671000       1
I               2.60478000      0.72852000     -9.37169000      53
I               6.37029000      1.92444000     -7.13495000      53
H               8.79131000      4.29915000     -0.10090100       1
H              -5.53698000      6.48866000      4.81340000       1
H               7.63762000      5.02700000      3.54997000       1
H              -3.71757000     -2.95771000     -8.59915000       1
H               2.15945000      9.56842000     -0.74559000       1
H               7.10549000      4.86189000     -4.83924000       1
N               6.24205000      5.92767000      4.84584000       7
H              -7.70469000      1.35401000     -6.03662000       1
N              -4.62815000     -2.49344000     -8.40125000       7
H               6.11955000     -1.71316000      7.61247000       1
H               6.90608000      6.54550000      2.94157000       1
H               6.29460000     -2.19977000     -7.40249000       1
C              -4.81460000     -1.34950000      8.64201000       6
H              -8.09026000      1.32074000      5.76148000       1
H              -4.05014000     -0.60853400     -9.15175000       1
I              -1.23370000     -7.68961000      6.34948000      53
I               2.80645000      8.44103000     -4.81601000      53
H              -9.14481000     -0.33861700      4.31699000       1
H              -3.79407000     -8.34158000      4.29835000       1
