200
cutoff_factor=1.20000000 nneightol=1.20000000 Lattice="28.95428000       0.00000000       0.00000000       0.00000000      28.42114000       0.00000000       0.00000000       0.00000000      28.68050000" Properties=species:S:1:pos:R:3:Z:I:1
H               0.49098900     -0.49607600     -1.10319000       1
H              -1.10024000      0.74497200      0.24474800       1
C              -1.36412000     -0.24016000     -0.14623100       6
N              -0.51811600     -0.51465600     -1.34831000       7
H              -1.16522000     -1.01271000      0.59983900       1
H              -0.68276200      0.20266600     -2.08043000       1
H              -0.74034900     -1.44409000     -1.75752000       1
H              -2.41336000     -0.26314200     -0.44881100       1
I               0.72621000     -0.64294300      3.07817000      53
I               3.19352000     -0.23390500     -0.66636600      53
H               2.85430000      2.10695000      0.87057800       1
H               1.67595000      3.19327000      1.42244000       1
I               0.68395300      3.13756000     -2.20497000      53
I              -0.90237600      3.43201000      2.01609000      53
N               2.68822000      3.07250000      1.20973000       7
P               3.28401000     -2.13647000      2.01464000      15
I               1.51055000     -4.22927000      0.33652200      53
I              -2.93269000     -3.59491000      0.95981800      53
H               2.93905000      3.72354000      0.43960300       1
P              -1.04579000      1.48362000      4.54823000      15
P               3.33997000      1.72503000     -3.29291000      15
I               1.58817000     -0.53730200     -4.72296000      53
H               3.70954000     -2.43311000     -2.35167000       1
I              -1.31404000     -3.69653000     -3.19770000      53
I              -3.70728000      0.07674630      3.47659000      53
I              -2.84988000      0.25990200     -4.36488000      53
H               3.24853000      2.65773000      3.19904000       1
H              -1.03384000     -2.47612000      4.59034000       1
P              -1.14122000      5.26584000     -0.63554500      15
C               3.51679000      3.36760000      2.41371000       6
H               2.03249000     -3.99558000     -3.15219000       1
I              -3.77985000      3.76107000     -1.59475000      53
H              -1.86855000     -4.30932000      3.24450000       1
I              -5.66795000     -0.23390500     -0.66636600      53
H              -4.29187000      3.25736000      2.14382000       1
N               3.89545000     -3.00548000     -3.19621000       7
P              -1.17379000     -5.72025000     -0.63554500      15
H               3.63226000     -2.43516000     -4.02446000       1
H               4.56959000      3.25736000      2.14382000       1
H               0.11160100     -3.85945000      4.61267000       1
H              -3.94846000     -3.21744000     -3.24706000       1
H              -0.96167400      4.00567000     -4.49316000       1
C              -0.87442300     -3.50431000      4.92047000       6
H               3.30812000      4.39070000      2.73436000       1
C               3.09134000     -4.26302000     -3.17499000       6
H              -5.15193000     -2.43311000     -2.35167000       1
I               5.15419000      0.07674630      3.47659000      53
P              -5.57745000     -2.13647000      2.01464000      15
H               3.35978000     -4.82894000     -2.28064000       1
P              -1.05109000     -1.92138000     -5.94848000      15
N              -1.91029000     -4.36430000      4.28385000       7
H              -6.00717000      2.10695000      0.87057800       1
H               6.44811000     -0.26314200     -0.44881100       1
I               5.08161000      3.76107000     -1.59475000      53
H              -1.80471000      2.22643000     -5.91114000       1
N              -4.96602000     -3.00548000     -3.19621000       7
I               1.59347000      2.86770000      5.77375000      53
P              -5.52150000      1.72503000     -3.29291000      15
H               4.91301000     -3.21744000     -3.24706000       1
H              -2.87097000     -4.05905000      4.53974000       1
C              -5.34468000      3.36760000      2.41371000       6
I               1.54313000      6.75682000      0.33652200      53
C              -0.84714100      4.07678000     -5.57624000       6
H               0.13888300      3.72163000     -5.88404000       1
H              -5.61294000      2.65773000      3.19904000       1
I               5.92878000     -3.59491000      0.95981800      53
N              -6.17325000      3.07250000      1.20973000       7
I               3.41188000     -3.97970000      4.64802000      53
H              -5.92242000      3.72354000      0.43960300       1
H              -5.22921000     -2.43516000     -4.02446000       1
H              -0.98895600     -3.57541000      6.00356000       1
H               3.32234000     -4.83556000     -4.07575000       1
N              -1.88301000      3.21678000     -6.21287000       7
H              -1.83199000     -5.35466000      4.58558000       1
H               3.32763000     -1.43055000      6.42096000       1
H               3.39236000      6.15715000     -2.28064000       1
I              -1.30874000     -0.29152400      7.29901000      53
I               6.01158000      0.25990200     -4.36488000      53
H              -2.84368000      3.52203000     -5.95697000       1
H              -1.79941000      5.63143000      4.58558000       1
H               3.63755000      0.96984000      6.47225000       1
C               7.49735000     -0.24016000     -0.14623100       6
H              -5.55335000      4.39070000      2.73436000       1
H               2.03778000     -0.59057700      7.34452000       1
H              -1.83597000      6.67677000      3.24450000       1
H              -5.50168000     -4.82894000     -2.28064000       1
I               3.43917000      3.60139000     -5.84869000      53
I              -2.84459000      3.66491000      6.13183000      53
H               7.69625000     -1.01271000      0.59983900       1
H               7.76123000      0.74497200      0.24474800       1
H               2.90647000     -7.26255000      0.43960300       1
C              -5.77012000     -4.26302000     -3.17499000       6
H               3.27554000     -6.59539000      2.73436000       1
H              -1.00656000      5.10497000     -5.90637000       1
I              -0.93495400     -7.55408000      2.01609000      53
H               2.06506000      6.99051000     -3.15219000       1
H              -7.18552000      3.19327000      1.42244000       1
C               3.09664000     -0.85801300      7.32172000       6
I              -2.90011000      7.39118000      0.95981800      53
H               3.24323000     -0.74727500     -7.29767000       1
I              -1.28146000      7.28956000     -3.19770000      53
C               3.12392000      6.72307000     -3.17499000       6
H               1.64337000     -7.79282000      1.42244000       1
H               3.35492000      6.15053000     -4.07575000       1
N              -1.87771000      6.62179000      4.28385000       7
H              -1.84127000      3.27176000     -7.25221000       1
I               0.65137500     -7.84853000     -2.20497000      53
I              -5.44958000     -3.97970000      4.64802000      53
H              -3.94316000      0.18756300      7.24965000       1
N               3.90075000      0.39952100      7.30050000       7
I              -3.81243000     -7.22502000     -1.59475000      53
H              -0.99425200     -6.98042000     -4.49316000       1
H              -5.22391000      0.96984000      6.47225000       1
H              -1.03914000     -5.88112000     -5.90637000       1
H              -5.53913000     -4.83556000     -4.07575000       1
H               8.12112000     -1.44409000     -1.75752000       1
N               2.65564000     -7.91359000      1.20973000       7
H               8.17870000      0.20266600     -2.08043000       1
H              -8.37048000     -0.49607600     -1.10319000       1
N               8.34335000     -0.51465600     -1.34831000       7
I               0.72091500     -4.04795000     -7.41854000      53
I              -7.35092000     -4.22927000      0.33652200      53
H               0.14417800      7.12664000      4.61267000       1
H               3.30282000      0.98570000     -7.76235000       1
H              -6.82898000     -3.99558000     -3.15219000       1
I              -0.90767200      0.02700680     -8.48062000      53
H               5.99050000     -4.05905000      4.53974000       1
H              -5.46910000      6.15715000     -2.28064000       1
H              -5.53383000     -1.43055000      6.42096000       1
I              -3.71258000     -3.32826000     -7.02012000      53
I              -7.27329000     -0.53730200     -4.72296000      53
C               3.48421000     -7.61848000      2.41371000       6
I              -8.13526000     -0.64294300      3.07817000      53
I              -5.42230000      3.60139000     -5.84869000      53
H              -2.83839000      6.92704000      4.53974000       1
H               4.91830000      0.18756300      7.24965000       1
C               3.51150000     -0.03739910     -8.08300000       6
H               6.99292000     -4.30932000      3.24450000       1
N              -4.96072000      0.39952100      7.30050000       7
I               7.95909000      3.43201000      2.01609000      53
C              -0.87971900     -6.90931000     -5.57624000       6
I               5.04904000     -7.22502000     -1.59475000      53
H              -0.73505400      1.96091000      8.73920000       1
I               7.54743000     -3.69653000     -3.19770000      53
H               3.36508000     -1.42393000      8.21607000       1
C              -0.84184500      7.48178000      4.92047000       6
H               3.71483000      0.97189300      8.14504000       1
I              -8.17751000      3.13756000     -2.20497000      53
H              -5.58592000     -6.59539000      2.73436000       1
I               3.44446000      7.00639000      4.64802000      53
H              -4.32445000     -7.72872000      2.14382000       1
P               7.81567000      1.48362000      4.54823000      15
H               6.01778000      3.52203000     -5.95697000       1
H              -0.67746700      3.60767000      8.41628000       1
H              -5.50655000      6.15053000     -4.07575000       1
H               4.53702000     -7.72872000      2.14382000       1
H               1.67065000     -0.21173000     -9.07427000       1
H              -5.61823000     -0.74727500     -7.29767000       1
N               6.95118000     -4.36430000      4.28385000       7
H              -3.91588000      7.76865000     -3.24706000       1
I               5.14889000     -3.32826000     -7.02012000      53
I               6.01688000      3.66491000      6.13183000      53
H               0.10630500     -7.26446000     -5.88404000       1
H               2.82172000     -8.87914000      0.87057800       1
C              -5.76483000     -0.85801300      7.32172000       6
P               7.72025000      5.26584000     -0.63554500      15
C              -5.73754000      6.72307000     -3.17499000       6
H              -4.29717000     -0.14763900     -8.35289000       1
H              -5.95500000     -7.26255000      0.43960300       1
H               7.82762000     -2.47612000      4.59034000       1
I               0.65667100     -4.44352000      8.29174000      53
H               9.35246000     -0.49607600     -1.10319000       1
N               3.92803000      7.98061000     -3.19621000       7
P               3.34526000      5.13003000      7.20380000      15
H               7.05676000      2.22643000     -5.91114000       1
H               3.21595000     -8.32836000      3.19904000       1
N              -9.37958000     -0.51465600     -1.34831000       7
H               4.56430000     -0.14763900     -8.35289000       1
I               5.96136000      7.39118000      0.95981800      53
H              -0.95637900      7.41068000      6.00356000       1
H              -5.55864000      0.98570000     -7.76235000       1
P               7.68767000     -5.72025000     -0.63554500      15
N              -0.51282100      2.89035000      9.14840000       7
H               3.74211000      8.55298000     -2.35167000       1
C              -5.37725000     -7.61848000      2.41371000       6
P               3.31659000      8.84962000      2.01464000      15
N               2.68293000     -0.33250100     -9.28698000       7
H              -5.14663000      0.97189300      8.14504000       1
C              -5.34997000     -0.03739910     -8.08300000       6
I              -7.26800000      2.86770000      5.77375000      53
H              -1.00127000      8.50997000      4.59034000       1
H              -0.70777100      9.54200000     -1.75752000       1
H               4.94559000      7.76865000     -3.24706000       1
H              -9.54423000      0.20266600     -2.08043000       1
H               0.49628500      2.90893000      9.39352000       1
P               3.31268000     -5.85606000      7.20380000      15
H              -9.60182000     -1.44409000     -1.75752000       1
N               6.97846000      3.21678000     -6.21287000       7
N              -4.93344000      7.98061000     -3.19621000       7
H               7.89979000      4.00567000     -4.49316000       1
