200
cutoff_factor=1.20000000 nneightol=1.20000000 Lattice="28.82613000       0.00000000       0.00000000       0.00000000      29.14508000       0.00000000       0.00000000       0.00000000      28.94811000" Properties=species:S:1:pos:R:3:Z:I:1
H               0.47278200     -0.58249100      1.15456000       1
C               0.45507700     -0.57607100      2.24667000       6
H               0.72936600      0.41049100      2.62714000       1
I              -1.81220000      1.97345000     -0.80183100      53
H              -0.53123400     -0.86677200      2.61498000       1
I               2.58195000      1.04452000     -0.55518300      53
I              -0.89552300     -2.60628000     -0.92975800      53
H               0.91193700      0.57896300     -3.08101000       1
N               1.45529000     -1.56873000      2.74157000       7
H               0.70067300     -1.82027000     -2.95528000       1
H               2.41598000     -1.32128000      2.42732000       1
H               1.24116000     -2.53007000      2.41004000       1
P              -3.60014000     -0.77694700     -0.70296800      15
P               0.95460000      3.73488000     -0.71281400      15
C               0.55143700      0.01054700     -3.94063000       6
H              -0.54048300     -0.01867890     -3.94844000       1
N               1.05909000     -1.38488000     -3.82997000       7
H               1.47125000     -1.61299000      3.78159000       1
H              -2.56130000      3.40977000      1.30603000       1
H               2.09763000     -1.38874000     -3.82249000       1
I              -3.76223000     -0.82455600      2.50328000      53
I               0.89187800      3.90227000      2.47857000      53
H               0.92735300      0.44312500     -4.86973000       1
I               3.54265000     -3.52413000     -0.53369900      53
H               0.71310600     -1.93820000     -4.64047000       1
H              -3.38839000      2.75421000     -2.90665000       1
P               5.18263000     -0.77694700     -0.70296800      15
H               4.16957000      2.51366000      2.18374000       1
H              -3.29825000      2.45055000      3.40428000       1
N              -3.11743000      3.98547000      1.96972000       7
P               0.91932400     -5.34117000     -0.71281400      15
I               1.31446000      3.71027000     -3.87161000      53
I              -3.95863000     -0.78264500     -3.86779000      53
I              -0.97597000      0.93027800      5.44791000      53
I               5.02053000     -0.82455600      2.50328000      53
H              -4.61319000      2.51366000      2.18374000       1
C              -3.95819000      3.10383000      2.82884000       6
H              -2.52071000     -4.51962000      2.56165000       1
H              -2.48543000      4.55643000      2.56165000       1
I               0.85660200     -5.17378000      2.47857000      53
H              -3.75398000     -4.47118000      1.38429000       1
H              -3.71871000      4.60486000      1.38429000       1
H              -3.57116000     -3.91610000     -3.08830000       1
N              -3.72290000      3.18125000     -3.79284000       7
I               4.82414000     -0.78264500     -3.86779000      53
H              -3.38733000      2.60240000     -4.58937000       1
N              -3.15270000     -5.09057000      1.96972000       7
I              -6.20082000      1.04452000     -0.55518300      53
H              -2.08887000      4.50737000     -3.92432000       1
I              -5.24011000     -3.52413000     -0.53369900      53
H              -2.59658000     -5.66627000      1.30603000       1
H              -2.12414000     -4.56867000     -3.92432000       1
H               4.02042000      3.20014000     -3.79589000       1
C               4.82457000      3.10383000      2.82884000       6
I              -0.86024700      6.46976000     -0.92975800      53
I               3.57793000      5.55192000     -0.53369900      53
H               4.23502000      3.73453000      3.49808000       1
H               5.39437000      2.75421000     -2.90665000       1
I               1.27918000     -5.36578000     -3.87161000      53
P               0.71292000      3.59452000      5.67560000      15
P              -3.54812000     -0.92613200      5.68370000      15
C              -3.21508000     -4.51337000     -3.93004000       6
I              -1.93279000     -3.64141000      5.40121000      53
C              -3.17980000      4.56268000     -3.93004000       6
H              -4.54774000      3.73453000      3.49808000       1
H               5.02878000     -4.47118000      1.38429000       1
H              -4.76235000      3.20014000     -3.79589000       1
H               5.48452000      2.45055000      3.40428000       1
H              -6.36678000     -1.32128000      2.42732000       1
H              -3.53588000      5.15994000     -3.08830000       1
H               5.06406000      4.60486000      1.38429000       1
I               2.46660000     -2.72354000      5.99327000      53
N               5.05986000      3.18125000     -3.79284000       7
H               1.27644000      6.54598000      2.41004000       1
I               3.38823000      1.76275000      6.01871000      53
N               5.66534000      3.98547000      1.96972000       7
H               5.21161000     -3.91610000     -3.08830000       1
H               6.22146000      3.40977000      1.30603000       1
I              -1.80507000      1.96457000     -6.72707000      53
I              -0.91871800     -2.62520000     -6.70163000      53
I               6.97056000      1.97345000     -0.80183100      53
H              -3.56967000     -4.09388000     -4.87343000       1
I              -1.84748000     -7.10260000     -0.80183100      53
H               5.39543000      2.60240000     -4.58937000       1
I              -5.20484000      5.55192000     -0.53369900      53
H               4.19974000     -5.34151000      3.49808000       1
C              -3.99347000     -5.97221000      2.82884000       6
H              -3.42367000     -6.32184000     -2.90665000       1
P               5.23465000     -0.92613200      5.68370000      15
H              -3.53439000      4.98217000     -4.87343000       1
H              -6.68513000     -1.38874000     -3.82249000       1
I               2.57830000      1.04669000     -7.31913000      53
N               5.63006000     -5.09057000      1.96972000       7
H              -4.58302000     -5.34151000      3.49808000       1
H               0.73594900      7.25578000     -2.95528000       1
H               0.73728000      0.29406300      7.84691000       1
I              -1.89752000      5.43464000      5.40121000      53
P               0.67764400     -5.48153000      5.67560000      15
P              -3.59403000     -0.79342700     -7.04474000      15
N              -3.75818000     -5.89480000     -3.79284000       7
N              -7.32748000     -1.56873000      2.74157000       7
H               5.24688000      5.15994000     -3.08830000       1
P               0.96297400      3.76197000     -7.03665000      15
H               3.98514000     -5.87591000     -3.79589000       1
H               4.13430000     -6.56239000      2.18374000       1
N               1.49056000      7.50732000      2.74157000       7
H               6.26206000     -4.51962000      2.56165000       1
H              -3.33352000     -6.62549000      3.40428000       1
C               4.78930000     -5.97221000      2.82884000       6
C               5.56769000     -4.51337000     -3.93004000       6
H               6.29733000      4.55643000      2.56165000       1
C               5.60296000      4.56268000     -3.93004000       6
H               5.21310000     -4.09388000     -4.87343000       1
I              -5.39453000      1.76275000      6.01871000      53
H              -7.54160000     -2.53007000      2.41004000       1
H              -4.64847000     -6.56239000      2.18374000       1
I               7.88724000     -2.60628000     -0.92975800      53
H              -7.31151000     -1.61299000      3.78159000       1
H              -8.30998000     -0.58249100      1.15456000       1
H               0.88433900     -2.08571000      8.13097000       1
I               2.54667000     -8.03153000     -0.55518300      53
H              -7.87083000      0.57896300     -3.08101000       1
H              -8.05340000      0.41049100      2.62714000       1
H              -4.79763000     -5.87591000     -3.79589000       1
H               2.45126000      7.75477000      2.42732000       1
H               6.18619000     -5.66627000      1.30603000       1
H               1.50653000      7.46306000      3.78159000       1
H               0.74838200      7.13785000     -4.64047000       1
H               0.50805800      8.49356000      1.15456000       1
N               5.02459000     -5.89480000     -3.79284000       7
H              -0.49595800      8.20927000      2.61498000       1
H              -3.42261000     -6.47365000     -4.58937000       1
C              -8.32769000     -0.57607100      2.24667000       6
N               1.09437000      7.69117000     -3.82997000       7
H               8.25153000     -0.86677200      2.61498000       1
P              -7.82816000      3.73488000     -0.71281400      15
H               5.24837000      4.98217000     -4.87343000       1
N              -7.72367000     -1.38488000     -3.82997000       7
I               3.49985000     -3.45767000     -7.27244000      53
H               5.35910000     -6.32184000     -2.90665000       1
P               5.18874000     -0.79342700     -7.04474000      15
H              -8.08209000     -1.82027000     -2.95528000       1
C               0.49035300      8.49998000      2.24667000       6
H               2.13291000      7.68731000     -3.82249000       1
C               1.09187000     -0.12542600      8.79030000       6
P               0.92769800     -5.31408000     -7.03665000      15
H               6.69390000      4.50737000     -3.92432000       1
H               6.65862000     -4.56867000     -3.92432000       1
P              -3.56486000      8.29910000     -0.70296800      15
H              -0.49067700     -1.48796000      8.92445000       1
H               2.18280000     -0.18072900      8.79603000       1
N               0.54877300     -1.50686000      8.92750000       7
H               0.87666100     -8.49708000     -3.08101000       1
H               0.69409000     -8.66556000      2.62714000       1
I               2.50188000      6.35251000      5.99327000      53
I              -6.31616000     -2.72354000      5.99327000      53
C              -8.23133000      0.01054700     -3.94063000       6
H               8.24228000     -0.01867890     -3.94844000       1
I              -7.89089000      3.90227000      2.47857000      53
I              -7.46831000      3.71027000     -3.87161000      53
H               5.44924000     -6.62549000      3.40428000       1
H              -3.76271000      2.44974000      8.07987000       1
H              -0.07192730     -0.65341100     -9.22226000       1
H              -7.85541000      0.44312500     -4.86973000       1
I              -0.88344200      6.45085000     -6.70163000      53
H               9.25555000     -0.58249100      1.15456000       1
I              -3.72696000      8.25149000      2.50328000      53
I               6.84997000     -3.64141000      5.40121000      53
I              -3.19664000     -0.97783700      8.84873000      53
H              -8.06966000     -1.93820000     -4.64047000       1
C               9.23784000     -0.57607100      2.24667000       6
P              -7.86344000     -5.34117000     -0.71281400      15
I               0.34832100      3.60530000      8.85255000      53
I               7.80679000      0.93027800      5.44791000      53
H               5.36016000     -6.47365000     -4.58937000       1
H               1.17757000     -1.93739000     -9.31606000       1
H              -3.58374000     -4.24498000      7.85061000       1
I              -5.28292000     -3.45767000     -7.27244000      53
I              -6.20447000      1.04669000     -7.31913000      53
H               0.73579300      0.47184000      9.63205000       1
H              -2.37819000      2.99920000      8.89786000       1
H              -9.31400000     -0.86677200      2.61498000       1
H               0.43750600     -9.65854000      1.15456000       1
I              -7.92616000     -5.17378000      2.47857000      53
H               5.02005000      2.44974000      8.07987000       1
P               5.21790000      8.29910000     -0.70296800      15
I               3.53512000      5.61838000     -7.27244000      53
I              -1.01125000     -8.14577000      5.44791000      53
H              -2.80042000      3.07512000     -8.93875000       1
H               0.76464200      9.48654000      2.62714000       1
H               9.51213000      0.41049100      2.62714000       1
H              -3.54846000      4.83107000      7.85061000       1
I               6.97769000      1.96457000     -6.72707000      53
H              -0.50520700      9.05737000     -3.94844000       1
C               0.51616100     -9.06550000     -3.94063000       6
C               0.41980100     -9.65212000      2.24667000       6
C               0.58671300      9.08659000     -3.94063000       6
H              -0.57575900     -9.09473000     -3.94844000       1
H               0.89207700     -8.63292000     -4.86973000       1
I              -3.92335000      8.29340000     -3.86779000      53
