200
cutoff_factor=1.20000000 nneightol=1.20000000 Lattice="29.07877000       0.00000000       0.00000000       0.00000000      28.79196000       0.00000000       0.00000000       0.00000000      28.93487000" Properties=species:S:1:pos:R:3:Z:I:1
P               1.09889000      0.55765500     -0.02232480      15
I              -1.15460000     -1.75211000      0.19554000      53
I              -1.15530000      2.74170000     -0.39648700      53
I               0.82425200      0.90706400      3.23139000      53
I               1.44127000      0.11237000     -3.18352000      53
H              -2.99285000      1.01277000      1.52104000       1
H              -2.29810000     -0.17885800     -2.70225000       1
H               0.09037850     -2.86822000      2.27637000       1
I               3.26078000     -1.75776000      0.55002000      53
H              -3.12661000      1.16434000     -1.84527000       1
H               1.68380000     -2.48576000      2.56046000       1
H              -3.28420000     -0.55490600      2.34491000       1
C              -3.26132000      0.28378300     -2.47533000       6
H              -1.78189000      0.88930700      3.60158000       1
H              -0.07967330     -3.47396000     -2.22872000       1
C              -3.44929000      0.52409800      2.38451000       6
N               0.87576300     -3.01972000      2.94186000       7
I               3.36281000      2.76018000     -0.10388800      53
H              -3.92521000     -0.43367800     -1.98786000       1
N              -2.80915000      1.05224000      3.61968000       7
H               0.59588700     -2.63060000      3.86664000       1
H               1.76926000     -2.60714000     -3.52633000       1
H               1.58009000      4.20007000      2.04542000       1
C               0.63274800     -4.16066000     -2.69095000       6
H               0.21840000      3.98074000     -3.06881000       1
H               1.40861000     -4.44459000     -1.97651000       1
H               4.43190000      0.74509600      2.42770000       1
H              -2.93886000      2.08633000      3.66815000       1
H              -4.51820000      0.74509600      2.42770000       1
H               1.50923000      4.58314000     -1.97651000       1
P              -3.46695000     -4.00371000      0.00267688      15
H               0.44864300      4.02881000      3.42771000       1
N               1.27852000     -3.46693000     -3.83832000       7
H               5.02488000     -0.43367800     -1.98786000       1
H               1.47947000     -4.82765000      2.04542000       1
N              -3.89328000      0.71661400     -3.75413000       7
C               1.21916000     -4.46460000      3.04201000       6
H              -3.22259000      0.60941600      4.46496000       1
H              -3.27011000      1.37014000     -4.27953000       1
H               0.57010000     -3.17104000     -4.54396000       1
H               4.14568000      1.17095000     -3.57215000       1
C               0.73337000      4.86706000     -2.69095000       6
C               1.31978000      4.56313000      3.04201000       6
H               0.11777800     -5.04699000     -3.06881000       1
I              -3.65802000     -3.43387000     -3.17769000      53
I              -5.68932000     -1.75776000      0.55002000      53
H              -4.08286000     -0.09422830     -4.37312000       1
H               0.02094800      5.55377000     -2.22872000       1
C               5.50080000      0.52409800      2.38451000       6
P              -3.36633000      5.02401000      0.00267688      15
H               0.34802200     -4.99892000      3.42771000       1
H              -4.80442000      1.17095000     -3.57215000       1
H               5.66590000     -0.55490600      2.34491000       1
H               2.16759000      4.45473000      3.72210000       1
C               5.68878000      0.28378300     -2.47533000       6
H               5.82348000      1.16434000     -1.84527000       1
H               5.95725000      1.01277000      1.52104000       1
I              -5.58729000      2.76018000     -0.10388800      53
H               2.06697000     -4.57300000      3.72210000       1
H               1.94197000     -4.09888000     -4.33422000       1
I              -3.10693000     -4.41555000      3.23570000      53
N               5.05682000      0.71661400     -3.75413000       7
I              -3.00631000      4.61218000      3.23570000      53
I              -1.25592000     -6.28603000     -0.39648700      53
P               1.05782000      0.66155200     -6.30498000      15
I              -1.56274000      2.44883000     -5.80582000      53
I              -0.44023800     -2.04939000      6.19544000      53
H               4.86723000     -0.09422830     -4.37312000       1
P               1.32482000      0.74189500      6.36991000      15
H               0.19100000      6.15950000      2.27637000       1
N               0.97638400      6.00800000      2.94186000       7
P               5.48314000     -4.00371000      0.00267688      15
I              -0.70723900     -2.12973000     -6.47945000      53
H               2.04260000      4.92885000     -4.33422000       1
N               1.37914000      5.56079000     -3.83832000       7
I               5.29208000     -3.43387000     -3.17769000      53
I               3.26219000     -6.26754000     -0.10388800      53
H               6.65199000     -0.17885800     -2.70225000       1
N               6.14095000      1.05224000      3.61968000       7
H               5.67998000      1.37014000     -4.27953000       1
H               1.78442000      6.54197000      2.56046000       1
I               4.08891000     -1.03012000      5.93567000      53
H               5.72751000      0.60941600      4.46496000       1
H               6.01124000      2.08633000      3.66815000       1
I              -3.55739000      5.59385000     -3.17769000      53
I              -1.05398000      7.27562000      0.19554000      53
I              -1.29574000      2.52917000      6.86906000      53
H               0.67072100      5.85668000     -4.54396000       1
H               0.69650900      6.39712000      3.86664000       1
P               5.58377000      5.02401000      0.00267688      15
I               2.92777000      3.27840000     -6.10635000      53
H               1.86988000      6.42058000     -3.52633000       1
I              -4.86119000     -1.03012000      5.93567000      53
I               3.82191000     -1.11046000     -6.73922000      53
P              -7.85121000      0.55765500     -0.02232480      15
I               7.79549000     -1.75211000      0.19554000      53
I               5.84316000     -4.41555000      3.23570000      53
I               3.36140000      7.26996000      0.55002000      53
I               3.19477000      3.35874000      6.56853000      53
P              -3.17448000     -3.80461000      6.34791000      15
H               7.16821000      0.88930700      3.60158000       1
H              -7.26630000     -2.48576000      2.56046000       1
I              -7.50883000      0.11237000     -3.18352000      53
P              -3.44148000     -3.88495000     -6.32698000      15
I               5.94379000      4.61218000      3.23570000      53
I               7.79480000      2.74170000     -0.39648700      53
I               5.39270000      5.59385000     -3.17769000      53
H              -7.18084000     -2.60714000     -3.52633000       1
H              -3.03948000     -6.94139000      3.66815000       1
I              -5.68791000     -6.26754000     -0.10388800      53
P               0.99826500     -8.47007000     -0.02232480      15
I              -5.12819000     -1.11046000     -6.73922000      53
H              -3.22723000     -7.86339000     -1.84527000       1
H              -3.09347000     -8.01495000      1.52104000       1
H              -7.37000000      4.20007000      2.04542000       1
H               0.83710000     -3.09070000      8.13093000       1
I               0.72363000     -8.12066000      3.23139000      53
P              -3.07386000      5.22312000      6.34791000      15
I              -8.12585000      0.90706400      3.23139000      53
P              -3.34086000      5.14277000     -6.32698000      15
I               2.82715000     -5.74933000     -6.10635000      53
H              -6.78250000      4.45473000      3.72210000       1
I              -1.66336000     -6.57889000     -5.80582000      53
H              -3.48959000      0.52907300     -8.20993000       1
H              -7.44087000      4.58314000     -1.97651000       1
H              -7.54149000     -4.44459000     -1.97651000       1
H              -3.00311000      1.45048000      8.39536000       1
H              -6.88312000     -4.57300000      3.72210000       1
H              -1.88251000     -8.13842000      3.60158000       1
N              -8.07433000     -3.01972000      2.94186000       7
H              -7.47062000     -4.82765000      2.04542000       1
H              -3.81586000     -0.01388540      8.30177000       1
I              -6.02233000      3.27840000     -6.10635000      53
I              -5.58869000      7.26996000      0.55002000      53
H              -7.00812000     -4.09888000     -4.33422000       1
I               3.09415000     -5.66898000      6.56853000      53
H               0.32888700     -2.71094000     -8.80825000       1
N              -2.90977000     -7.97548000      3.61968000       7
P               5.50862000     -3.88495000     -6.32698000      15
N              -7.67158000     -3.46693000     -3.83832000       7
H              -2.04889000      0.80896400     -9.07330000       1
I              -0.33961700      6.97833000      6.19544000      53
H              -3.18358000      8.47282000      2.34491000       1
I              -5.75533000      3.35874000      6.56853000      53
P               5.77562000     -3.80461000      6.34791000      15
C              -7.63032000      4.56313000      3.04201000       6
H              -3.37073000     -7.65759000     -4.27953000       1
C              -7.73094000     -4.46460000      3.04201000       6
I              -0.60661700      6.89799000     -6.47945000      53
I               0.55725200      0.82672200     -9.44350000      53
H              -2.19748000      8.84887000     -2.70225000       1
H               2.20897000     -4.01853000      8.34067000       1
C              -3.54991000     -8.50363000      2.38451000       6
H              -6.90750000      4.92885000     -4.33422000       1
H               4.04506000     -7.85678000     -3.57215000       1
I              -1.39636000     -6.49855000      6.86906000      53
I               1.34065000     -8.91535000     -3.18352000      53
H              -8.35421000     -2.63060000      3.86664000       1
H              -8.85972000     -2.86822000      2.27637000       1
N               1.54552000     -3.38659000      8.83657000       7
N              -3.07615000      0.97190100     -9.05521000       7
H              -3.82459000      8.59404000     -1.98786000       1
I               1.70827000      0.19271200      9.49137000      53
H               4.33128000     -8.28263000      2.42770000       1
P               1.19951000      9.58538000     -0.02232480      15
N              -3.62628000      0.79695600      8.92076000       7
C              -8.31735000     -4.16066000     -2.69095000       6
C              -3.36194000     -8.74394000     -2.47533000       6
H               2.03626000     -2.52680000      9.14856000       1
I               7.38736000      2.44883000     -5.80582000      53
H               9.04048000     -2.86822000      2.27637000       1
H               5.13423000     -0.01388540      8.30177000       1
H              -3.20586000      2.00599000     -9.00674000       1
H               8.87042000     -3.47396000     -2.22872000       1
H              -4.61882000     -8.28263000      2.42770000       1
I               1.54189000      9.14009000     -3.18352000      53
H               5.91062000     -6.94139000      3.66815000       1
H               5.46051000      0.52907300     -8.20993000       1
H              -2.39872000     -9.20658000     -2.70225000       1
P               5.60924000      5.14277000     -6.32698000      15
H               5.72286000     -7.86339000     -1.84527000       1
C              -8.21673000      4.86706000     -2.69095000       6
H              -4.90504000     -7.85678000     -3.57215000       1
H              -9.02977000     -3.47396000     -2.22872000       1
I               7.69418000     -6.28603000     -0.39648700      53
N              -3.99390000     -8.31111000     -3.75413000       7
P              -7.62528000      0.74189500      6.36991000      15
H               2.30960000      5.00919000      8.34067000       1
H              -8.50145000      4.02881000      3.42771000       1
H              -7.16568000      6.54197000      2.56046000       1
H               5.85663000     -8.01495000      1.52104000       1
H              -8.38000000     -3.17104000     -4.54396000       1
H               0.18164300      3.94846000     -9.24718000       1
P              10.04900000      0.55765500     -0.02232480      15
H              -8.73170000      3.98074000     -3.06881000       1
H              -3.32321000     -8.41831000      4.46496000       1
P               5.87624000      5.22312000      6.34791000      15
H               0.93772100      5.93703000      8.13093000       1
P              -7.89228000      0.66155200     -6.30498000      15
C              -3.16069000      9.31151000     -2.47533000       6
