200
cutoff_factor=1.20000000 nneightol=1.20000000 Lattice="29.16648000       0.00000000       0.00000000       0.00000000      28.65261000       0.00000000       0.00000000       0.00000000      27.33072000" Properties=species:S:1:pos:R:3:Z:I:1
H               1.04540000      0.07089010      0.20212700       1
C               1.77544000      0.75412100      0.64215700       6
H               1.27245000      1.51090000      1.24630000       1
I              -2.23498000      1.28103000      0.36068200      53
H               2.50042000      0.20171700      1.24282000       1
H               1.84528000      1.97402000     -1.07580000       1
N               2.50480000      1.44250000     -0.46413100       7
H              -2.07423000     -1.98508000      1.03634000       1
H              -2.08035000     -2.25807000     -0.73485300       1
I              -0.26252000     -1.33890000     -2.90512000      53
H               2.98478000      0.75195800     -1.08514000       1
H              -0.96082800     -3.19378000      0.31211200       1
C              -1.94456000     -2.72395000      0.24306400       6
P              -2.12893000      1.22192000     -2.88588000      15
I              -0.39938400     -1.45396000      3.48869000      53
H               3.21785000      2.09336000     -0.11167700       1
I               2.39542000     -3.23368000      0.36625000      53
I               0.44556400      3.13940000     -2.83785000      53
P              -2.19320000      1.15046000      3.54846000      15
I               0.46695300      3.02340000      3.63505000      53
N              -2.98709000     -3.77666000      0.40647600       7
P               2.27893000     -3.22714000     -2.87767000      15
I               4.16981000     -0.63174400     -2.81811000      53
H              -3.94505000     -3.37543000      0.34387400       1
P               2.23801000     -3.24236000      3.56109000      15
H              -2.92964000     -4.24927000      1.33162000       1
H              -2.90672000      4.49698000     -0.34810800       1
H              -2.92730000     -4.48771000     -0.34810800       1
I               4.05051000     -0.59521200      3.68459000      53
I              -4.75947000     -0.63174400     -2.81811000      53
H              -2.90906000      4.73542000      1.33162000       1
H               2.66609000      1.72672000     -4.78463000       1
H              -0.94024700      5.79091000      0.31211200       1
N              -2.96651000      5.20803000      0.40647600       7
H               4.98423000     -3.37543000      0.34387400       1
H              -5.71143000      2.09336000     -0.11167700       1
H              -5.94450000      0.75195800     -1.08514000       1
H               1.24301000      1.39192000     -5.82619000       1
I              -4.87878000     -0.59521200      3.68459000      53
H               1.94122000      2.06133000      5.49767000       1
I              -4.06797000      3.79539000     -2.74964000      53
I               2.41600000      5.75101000      0.36625000      53
H              -2.82287000     -2.77622000     -4.99683000       1
H               3.09838000      0.86445300      5.51420000       1
C               2.30245000      1.65804000     -5.81248000       6
I               0.42498300     -5.84529000     -2.83785000      53
H              -6.42887000      0.20171700      1.24282000       1
C              -1.92398000      6.26074000      0.24306400       6
I              -2.22448000      1.24364000     -6.07723000      53
N              -6.42448000      1.44250000     -0.46413100       7
H              -1.57447000     -4.06477000     -4.98640000       1
I              -3.96245000      3.92282000      3.62423000      53
H               2.94244000     -0.33771800     -6.05769000       1
I               4.86131000      3.79539000     -2.74964000      53
H              -0.90321800     -2.18378000     -6.36319000       1
I               6.69430000      1.28103000      0.36068200      53
P               2.29951000      5.75755000     -2.87767000      15
N               2.61036000      1.56026000      6.12226000       7
H              -3.92447000      5.60926000      0.34387400       1
H               1.17747000      0.17775400      6.82233000       1
I               0.44637100     -5.96129000      3.63505000      53
H              -1.99391000     -4.07082000      5.34151000       1
C              -2.31235000     -3.53556000     -5.59374000       6
N               5.94219000     -3.77666000      0.40647600       7
H              -2.05977000      6.72662000     -0.73485300       1
P               2.25859000      5.74233000      3.56109000      15
I              -4.08855000     -5.18930000     -2.74964000      53
H              -2.27157000     -1.96781000      6.49857000       1
H              -1.55389000      4.91992000     -4.98640000       1
H               6.85505000     -1.98508000      1.03634000       1
C              -7.15384000      0.75412100      0.64215700       6
N               3.06854000      0.58665700     -6.51290000       7
I               2.45128000     -3.11082000     -6.06664000      53
H               6.84893000     -2.25807000     -0.73485300       1
I              -2.26626000      1.30544000      6.77158000      53
H               2.46655000      2.60063000     -6.33964000       1
I               4.96683000      3.92282000      3.62423000      53
I              -6.53386000     -3.23368000      0.36625000      53
H               1.82470000     -7.01067000     -1.07580000       1
H              -2.05365000      6.99961000      1.03634000       1
H              -0.65252500     -3.76281000      6.32142000       1
I              -3.98303000     -5.06187000      3.62423000      53
H              -7.08400000      1.97402000     -1.07580000       1
H               5.99964000     -4.24927000      1.33162000       1
N              -1.60138000     -2.85599000     -6.71596000       7
P               6.80035000      1.22192000     -2.88588000      15
C               6.98472000     -2.72395000      0.24306400       6
H               6.00198000     -4.48771000     -0.34810800       1
H              -1.97333000      4.91387000      5.34151000       1
H               6.02256000      4.49698000     -0.34810800       1
H               5.00481000      5.60926000      0.34387400       1
C               1.89939000      0.88069900      7.24448000       6
H               3.19727000     -6.89133000     -0.11167700       1
H               3.30852000      2.23248000      6.47503000       1
I               4.84073000     -5.18930000     -2.74964000      53
N              -1.66958000     -3.98178000      6.32532000       7
H               1.25187000     -7.47379000      1.24630000       1
P               6.73608000      1.15046000      3.54846000      15
H               4.08560000      0.80562700     -6.51680000       1
H               6.02022000      4.73542000      1.33162000       1
I               1.96667000     -3.32480000      6.76099000      53
H              -7.88388000      0.07089010      0.20212700       1
H              -7.65683000      1.51090000      1.24630000       1
N               5.96277000      5.20803000      0.40647600       7
P              -6.65035000     -3.22714000     -2.87767000      15
I               4.94625000     -5.06187000      3.62423000      53
N               2.48422000     -7.54219000     -0.46413100       7
H              -3.03427000     -4.23850000     -6.01589000       1
C              -2.43568000     -2.91039000      7.02574000       6
H               2.74422000      0.49761300     -7.49671000       1
I              -2.25556000     -7.70366000      0.36068200      53
H              -2.27052000     -2.35493000     -7.34055000       1
H              -6.26319000      1.72672000     -4.78463000       1
H              -5.83090000      0.86445300      5.51420000       1
H              -1.77510000      4.07854000      6.78053000       1
H               1.38886000      1.64004000      7.84139000       1
C              -2.29177000      5.44913000     -5.59374000       6
H              -4.84368000      0.80562700     -6.51680000       1
I              -0.24193800      7.64579000     -2.90512000      53
H              -1.11336000     -3.55180000     -7.32402000       1
H              -0.63194400      5.22188000      6.32142000       1
N              -1.64900000      5.00291000      6.32532000       7
H              -3.01369000      4.74619000     -6.01589000       1
P              -6.69127000     -3.24236000      3.56109000      15
H               2.63727000      0.35148100      7.85182000       1
I              -0.37880300      7.53073000      3.48869000      53
H               6.10641000     -2.77622000     -4.99683000       1
C               1.75486000     -8.23057000      0.64215700       6
H              -2.80229000      6.20847000     -4.99683000       1
H              -3.49512000     -3.17651000      7.01203000       1
H              -5.98684000     -0.33771800     -6.05769000       1
P              -2.14951000     -7.76277000     -2.88588000      15
H              -1.79568000     -4.90615000      6.78053000       1
H               7.96845000     -3.19378000      0.31211200       1
I              -6.51328000      5.75101000      0.36625000      53
N              -5.86074000      0.58665700     -6.51290000       7
H              -2.07204000     -2.84171000      8.05359000       1
I               2.47187000      5.87387000     -6.06664000      53
H               2.96419000     -8.23273000     -1.08514000       1
H              -5.62076000      2.23248000      6.47503000       1
P              -2.21378000     -7.83423000      3.54846000      15
N              -6.31892000      1.56026000      6.12226000       7
H              -5.73201000     -6.89133000     -0.11167700       1
C              -6.62683000      1.65804000     -5.81248000       6
H               1.02482000     -8.91380000      0.20212700       1
I               1.98725000      5.65989000      6.76099000      53
H               1.92064000     -6.92336000      5.49767000       1
H               2.64551000     -7.25797000     -4.78463000       1
H               1.06598000      9.05558000      0.20212700       1
H              -6.98806000      2.06133000      5.49767000       1
I               6.70480000      1.24364000     -6.07723000      53
H              -1.09277000      5.43289000     -7.32402000       1
H               2.47983000     -8.78297000      1.24282000       1
N              -1.58080000      6.12870000     -6.71596000       7
I               8.66676000     -1.33890000     -2.90512000      53
P              -6.62977000      5.75755000     -2.87767000      15
I               0.75509600     -0.49343000     -9.21399000      53
H               2.44597000     -6.38406000     -6.33964000       1
I               8.52990000     -1.45396000      3.48869000      53
H              -0.88263700      6.80091000     -6.36319000       1
C               6.61693000     -3.53556000     -5.59374000       6
C               7.00530000      6.26074000      0.24306400       6
I              -6.47800000     -3.11082000     -6.06664000      53
H              -6.46273000      2.60063000     -6.33964000       1
H               5.43416000     -3.17651000      7.01203000       1
H               5.89501000     -4.23850000     -6.01589000       1
I              -8.48372000      3.13940000     -2.83785000      53
P              -6.67069000      5.74233000      3.56109000      15
H               6.65771000     -1.96781000      6.49857000       1
P              -1.95315000      1.32608000     -9.27713000      15
I               6.66302000      1.30544000      6.77158000      53
C              -2.41510000      6.07430000      7.02574000       6
H               2.52100000      9.18641000      1.24282000       1
C               2.28186000     -7.32665000     -5.81248000       6
H               6.86951000      6.72662000     -0.73485300       1
H               1.22243000     -7.59277000     -5.82619000       1
H               6.93537000     -4.07082000      5.34151000       1
H               5.91559000      4.74619000     -6.01589000       1
I              -8.46233000      3.02340000      3.63505000      53
H              -6.18506000      0.49761300     -7.49671000       1
I              -9.19180000     -1.33890000     -2.90512000      53
H              -7.68627000      1.39192000     -5.82619000       1
H              -3.47454000      5.80818000      7.01203000       1
I               4.19039000      8.35295000     -2.81811000      53
H               7.35481000     -4.06477000     -4.98640000       1
H              -2.25099000      7.01688000      6.49857000       1
H               6.87563000      6.99961000      1.03634000       1
H               7.98903000      5.79091000      0.31211200       1
H               3.28794000     -6.75221000      6.47503000       1
C               1.79602000      9.73881000      0.64215700       6
N              -6.44506000     -7.54219000     -0.46413100       7
N               2.58977000     -7.42443000      6.12226000       7
H               9.97468000      0.07089010      0.20212700       1
I              -0.14065100      3.97322000     -9.15363000      53
C               6.49360000     -2.91039000      7.02574000       6
I              -4.73889000      8.35295000     -2.81811000      53
I               4.07109000      8.38948000      3.68459000      53
I              -3.74478000     -1.39285000     -9.20317000      53
H              -7.10458000     -7.01067000     -1.07580000       1
H               6.12699000      6.20847000     -4.99683000       1
