200
cutoff_factor=1.20000000 nneightol=1.20000000 Lattice="27.95326000       0.00000000       0.00000000       0.00000000      28.06136000       0.00000000       0.00000000       0.00000000      29.65319000" Properties=species:S:1:pos:R:3:Z:I:1
I               0.18183200     -1.42012000     -0.02382100      53
P              -1.72676000      1.16188000     -0.04344070      15
H               1.52695000      1.13422000      2.25242000       1
H               1.97746000      1.53003000     -1.89883000       1
I               0.92869300      3.00508000     -0.06382900      53
H               1.88586000      0.23722400     -2.98348000       1
N               2.52870000      0.89289200     -2.51527000       7
H               3.16451000      0.35440500     -1.88691000       1
I              -1.67374000      1.22679000     -3.22022000      53
I              -1.83223000      1.27856000      3.20100000      53
H              -1.32285000     -3.16166000      1.95489000       1
C               2.12031000      1.26816000      3.15919000       6
H              -2.37363000     -2.70339000     -2.15837000       1
H               2.79347000     -0.72896800      3.17106000       1
H              -0.57653100     -2.14545000     -3.69470000       1
P               2.72201000     -3.39099000     -0.06173590      15
H              -1.70754000     -2.15496000      3.39071000       1
I              -4.37732000     -0.67889400     -0.00890059      53
H               1.49606000      1.13115000      4.04451000       1
H               3.80386000      0.28794700      2.33567000       1
N               3.19219000      0.23083900      3.17572000       7
C              -1.41597000     -3.14860000      3.04291000       6
I               4.59931000     -0.67889400     -0.00890059      53
H              -1.09684000     -3.96392000     -2.16986000       1
H               2.58953000      2.25454000      3.16876000       1
C              -1.88901000     -3.48408000     -2.74928000       6
H              -0.47846000     -3.45729000      3.51090000       1
N              -1.27730000     -2.85346000     -3.95639000       7
C               3.31162000      1.67224000     -3.51799000       6
I              -3.58157000      3.75273000      0.00245808      53
H               2.61279000      2.23504000     -4.14120000       1
I               2.81223000     -3.27785000     -3.22755000      53
H              -2.16584000      3.88465000      3.11625000       1
I               2.86742000     -3.34489000      3.19250000      53
H               3.97959000      2.35188000     -2.98377000       1
H              -1.99667000     -2.38807000     -4.55326000       1
H               3.77496000      0.28396300      4.03597000       1
H              -1.00950000      5.00497000     -2.16986000       1
H              -5.17277000      0.28794700      2.33567000       1
H               3.88726000      0.97195200     -4.12770000       1
H              -0.80835000     -3.56173000     -4.56300000       1
H              -2.62227000     -4.22383000     -3.07872000       1
N              -2.48115000     -4.11896000      3.43243000       7
H              -3.39904000     -3.88345000      3.00844000       1
I               0.84134500     -5.96382000     -0.06382900      53
H              -5.81212000      0.35440500     -1.88691000       1
H              -2.53492000      4.74507000     -3.07872000       1
P               2.80936000      5.57790000     -0.06173590      15
H              -1.23550000      5.80724000      1.95489000       1
H              -4.99703000      2.35188000     -2.98377000       1
I               1.08829000     -0.50022400     -6.21922000      53
H              -2.25319000     -5.08425000      3.11625000       1
I              -3.66891000     -5.21617000      0.00245808      53
C              -1.80166000      5.48482000     -2.74928000       6
N              -2.39380000      4.84994000      3.43243000       7
I               0.09969930     -1.51181000      6.23144000      53
H              -0.39111100      5.51161000      3.51090000       1
I               5.39506000      3.75273000      0.00245808      53
H              -5.20167000      0.28396300      4.03597000       1
N              -5.78444000      0.23083900      3.17572000       7
H              -5.08937000      0.97195200     -4.12770000       1
H              -2.61811000     -4.17098000      4.46402000       1
C              -1.32863000      5.82030000      3.04291000       6
P              -1.58417000      1.31948000     -6.38497000      15
P              -1.70460000      1.08489000      6.42731000      15
H              -3.31170000      5.08545000      3.00844000       1
C              -5.66501000      1.67224000     -3.51799000       6
N              -6.44793000      0.89289200     -2.51527000       7
H              -6.18316000     -0.72896800      3.17106000       1
H              -2.28628000      6.26551000     -2.15837000       1
H              -2.53076000      4.79791000      4.46402000       1
I               2.95477000      5.62401000      3.19250000      53
H              -0.72100100      5.40716000     -4.56300000       1
I               0.92784900      2.92734000      6.41771000      53
P              -6.25462000     -3.39099000     -0.06173590      15
I               2.89958000      5.69104000     -3.22755000      53
P               7.24987000      1.16188000     -0.04344070      15
I              -3.39896000     -1.34044000     -6.40499000      53
N              -1.18995000      6.11544000     -3.95639000       7
H              -6.99917000      1.53003000     -1.89883000       1
H               5.57759000     -3.88345000      3.00844000       1
I               5.30772000     -5.21617000      0.00245808      53
H               6.60300000     -2.70339000     -2.15837000       1
H              -6.38710000      2.25454000      3.16876000       1
I               0.26918100      7.54878000     -0.02382100      53
I               0.29312100      4.01146000     -6.44311000      53
C              -6.85632000      1.26816000      3.15919000       6
I              -6.10921000     -3.34489000      3.19250000      53
I              -6.16440000     -3.27785000     -3.22755000      53
H              -7.09077000      0.23722400     -2.98348000       1
P               2.94522000     -3.18289000     -6.39540000      15
P               2.65528000     -3.38164000      6.43774000      15
H              -0.48918300      6.82344000     -3.69470000       1
H              -1.62019000      6.81393000      3.39071000       1
I              -4.44405000     -0.68965400      6.37960000      53
H               2.50218000     -6.71436000      3.16876000       1
I               4.53258000     -0.68965400      6.37960000      53
H              -7.44968000      1.13422000      2.25242000       1
H               1.89011000     -7.43887000     -1.89883000       1
H              -6.36384000      2.23504000     -4.14120000       1
I               7.14440000      1.27856000      3.20100000      53
P              -1.81411000     -7.80701000     -0.04344070      15
I               7.30289000      1.22679000     -3.22022000      53
I               0.20577300     -4.95743000     -6.44311000      53
H               5.66493000      5.08545000      3.00844000       1
H              -1.90932000      6.58083000     -4.55326000       1
H               6.35436000     -4.22383000     -3.07872000       1
H               3.89225000     -6.61702000     -2.98377000       1
H               1.43960000     -7.83468000      2.25242000       1
H               2.52544000     -6.73385000     -4.14120000       1
H               7.26909000     -2.15496000      3.39071000       1
P              -6.16727000      5.57790000     -0.06173590      15
C               7.08762000     -3.48408000     -2.74928000       6
I              -3.56153000      3.76756000      6.60348000      53
I              -4.13976000      3.18931000     -6.59127000      53
N               6.49548000     -4.11896000      3.43243000       7
H               6.81079000      3.88465000      3.11625000       1
H               7.65378000     -3.16166000      1.95489000       1
I              -1.91958000     -7.69034000      3.20100000      53
I              -1.76109000     -7.74210000     -3.22022000      53
C               2.03296000     -7.70073000      3.15919000       6
H               6.44171000      4.74507000     -3.07872000       1
H              -7.48057000      1.13115000      4.04451000       1
I              -8.04794000      3.00508000     -0.06382900      53
I               5.57767000     -1.34044000     -6.40499000      53
H               2.11907000      0.53013200     -8.35869000       1
H               6.97996000     -2.38807000     -4.55326000       1
C               3.22427000     -7.29666000     -3.51799000       6
C               7.56066000     -3.14860000      3.04291000       6
I               4.83687000      3.18931000     -6.59127000      53
H               2.33014000      1.87971000      8.26945000       1
N               2.44135000     -8.07600000     -2.51527000       7
H               6.35852000     -4.17098000      4.46402000       1
I              -6.02186000      5.62401000      3.19250000      53
I               0.84050100     -6.04156000      6.41771000      53
H              -5.08438000     -6.61702000     -2.98377000       1
N               6.58283000      4.84994000      3.43243000       7
I              -8.79480000     -1.42012000     -0.02382100      53
I              -6.07705000      5.69104000     -3.22755000      53
H               1.40871000     -7.83775000      4.04451000       1
P               2.74263000      5.58726000      6.43774000      15
H               6.72344000     -5.08425000      3.11625000       1
H               3.51846000      0.70604700      8.25970000       1
H               7.87979000     -3.96392000     -2.16986000       1
N               7.69933000     -2.85346000     -3.95639000       7
P               3.03257000      5.78600000     -6.39540000      15
I              -3.64888000     -5.20134000      6.60348000      53
H               6.44587000      4.79791000      4.46402000       1
I               9.15846000     -1.42012000     -0.02382100      53
H              -2.12439000     -2.46607000      8.68151000       1
H               2.88082000      8.23993000      3.17106000       1
I               5.41510000      3.76756000      6.60348000      53
I              -4.28997000      8.29000000     -0.00890059      53
H               3.07716000     -8.61449000     -1.88691000       1
P              -6.03141000     -3.18289000     -6.39540000      15
H               1.79851000     -8.73167000     -2.98348000       1
H               6.69035000      6.26551000     -2.15837000       1
H               8.40010000     -2.14545000     -3.69470000       1
C               7.17497000      5.48482000     -2.74928000       6
N               3.04950000      1.41432000      8.86631000       7
H              -0.84991700     -3.72916000      8.69501000       1
I               4.68666000      8.29000000     -0.00890059      53
P              -6.32135000     -3.38164000      6.43774000      15
H               7.96713000      5.00497000     -2.16986000       1
H              -0.55184600     -3.98382000     -8.78673000       1
N               2.25603000      0.58215800     -9.39028000       7
I               0.18704800      7.45709000      6.23144000      53
H               3.71651000     -8.68095000      2.33567000       1
I              -4.22711000     -5.77959000     -6.59127000      53
H              -2.83075000     -3.13663000     -8.77820000       1
P               7.27203000      1.08489000      6.42731000      15
H               3.79991000     -7.99694000     -4.12770000       1
N               3.10484000     -8.73806000      3.17572000       7
I              -1.83759000      0.98992600      9.59516000      53
I              -1.37204000      1.35623000     -9.63021000      53
H               8.49817000     -3.45729000      3.51090000       1
H              -6.47445000     -6.71436000      3.16876000       1
P               7.39245000      1.31948000     -6.38497000      15
H               7.74112000      5.80724000      1.95489000       1
H               1.97320000      9.20612000     -2.98348000       1
C              -1.42555000     -3.02888000      9.30471000       6
H               1.70453000      0.04395330      9.74399000       1
H              -5.45817000      0.70604700      8.25970000       1
C              -5.75236000     -7.29666000     -3.51799000       6
H               1.33813000      0.81766800     -9.81426000       1
I               5.32775000     -5.20134000      6.60348000      53
I               4.74952000     -5.77959000     -6.59127000      53
H               8.16828000     -3.56173000     -4.56300000       1
H              -1.73728000     -2.01324000     -9.65395000       1
H               2.48398000     -0.38313400     -9.70646000       1
H               3.25186000      9.32330000     -1.88691000       1
I              -7.88834000     -0.50022400     -6.21922000      53
C               7.64800000      5.82030000      3.04291000       6
I              -8.13528000     -5.96382000     -0.06382900      53
H               3.75027000      2.12233000      9.12801000       1
P              -1.67152000     -7.64942000     -6.38497000      15
H              -0.46449800      4.98508000     -8.78673000       1
H              -0.75757800     -2.34924000      9.83893000       1
H              -0.76256900      5.23973000      8.69501000       1
H              -6.45119000     -6.73385000     -4.14120000       1
