200
cutoff_factor=1.20000000 nneightol=1.20000000 Lattice="27.86817000       0.00000000       0.00000000       0.00000000      28.83501000       0.00000000       0.00000000       0.00000000      27.95219000" Properties=species:S:1:pos:R:3:Z:I:1
P               0.24098800     -0.56033700     -0.78854400      15
I               0.96154400     -0.43221300      2.35617000      53
I              -2.33350000      1.38569000     -0.26341500      53
I               2.16958000      1.97837000     -1.24950000      53
H               0.81302100      2.82245000      1.45874000       1
I              -1.65146000     -3.16998000     -0.34670900      53
I              -0.45314400     -0.75201700     -3.92692000      53
I               2.81928000     -2.59035000     -1.30433000      53
H              -2.91887000     -1.53315000      2.35617000       1
H              -1.41373000      3.05966000      2.35615000       1
C               0.63963800      3.42015000      2.35612000       6
H               3.51546000      0.07755010      2.35616000       1
H              -3.97843000      0.44829100      1.51629000       1
H               0.81304900      2.82241000      3.25348000       1
N              -0.77428200      3.87052000      2.35616000       7
H              -0.45129100      3.63422000     -3.02934000       1
H              -0.97847900      4.45423000      1.51481000       1
C              -4.00860000     -1.45702000      2.35617000       6
H              -0.86972800     -4.64433000      1.51481000       1
N              -4.38010000     -0.01853890      2.35616000       7
H              -4.42432000     -1.92072000      1.45885000       1
H               1.27744000      4.30620000      2.35614000       1
H              -2.99351000     -1.25313000     -3.92690000       1
H              -4.04415000      0.72141700     -3.02958000       1
H               4.50977000     -1.92072000      1.45885000       1
H              -3.97843000      0.44830100      3.19603000       1
N               4.55398000     -0.01853890      2.35616000       7
H               3.39590000      0.29235000     -3.92693000       1
H               4.95566000      0.44829100      1.51629000       1
H               1.61700000     -4.04017000     -3.08489000       1
H               1.38619000     -4.79237000      2.35614000       1
P               0.24098400     -0.56033300      5.50087000      15
H              -0.97845600      4.45421000      3.19753000       1
H              -0.65592000     -3.94214000     -3.92668000       1
H               1.77508000      3.62583000     -3.92715000       1
H              -4.42156000     -1.65809000     -3.08633000       1
C               4.92549000     -1.45702000      2.35617000       6
I              -2.33351000      1.38568000      4.97574000      53
H              -0.86970500     -4.64436000      3.19753000       1
H               4.51252000     -1.65809000     -3.08633000       1
N              -4.03516000     -1.18232000     -3.92690000       7
C              -0.21706500      4.21135000     -3.92685000       6
N              -0.66553100     -5.22804000      2.35616000       7
H               4.88993000      0.72141700     -3.02958000       1
H              -4.42431000     -1.92071000      3.25351000       1
P              -4.26680000      3.93536000     -0.78781800      15
H               4.50977000     -1.92071000      3.25351000       1
H              -5.41863000      0.07755010      2.35616000       1
H               4.95566000      0.44830100      3.19603000       1
C              -4.44674000      0.24631600     -3.92692000       6
C               4.48735000      0.24631600     -3.92692000       6
H              -0.45148800      3.63444000     -4.82446000       1
N               1.23775000      4.51047000     -3.92698000       7
H               1.50825000      5.05839000     -3.08489000       1
P               4.66728000      3.93536000     -0.78781800      15
N               1.34650000     -4.58809000     -3.92698000       7
C               0.74838900     -5.67842000      2.35612000       6
I              -1.76021000      5.92858000     -0.34670900      53
I              -1.65144000     -3.17000000      5.05904000      53
H              -0.34254100     -5.46435000     -3.02934000       1
I               4.20723000      3.98934000      2.35617000      53
C              -0.10831400     -4.88722000     -3.92685000       6
H              -4.04414000      0.72139300     -4.82427000       1
N               4.89893000     -1.18232000     -3.92690000       7
H               1.61683000     -4.03998000     -4.76900000       1
H               0.92177200     -6.27611000      1.45874000       1
H              -0.76467100      5.15642000     -3.92668000       1
H              -1.30498000     -6.03891000      2.35615000       1
I              -4.72686000      3.98934000      2.35617000      53
H               6.01522000     -1.53315000      2.35617000       1
I               2.16956000      1.97839000      5.96186000      53
P              -4.15805000     -5.16320000     -0.78781800      15
H              -4.42155000     -1.65810000     -4.76747000       1
I              -3.79729000      3.90742000     -3.92692000      53
I               6.60058000      1.38569000     -0.26341500      53
I              -6.11481000     -2.59035000     -1.30433000      53
H               4.51253000     -1.65810000     -4.76747000       1
H              -5.53819000      0.29235000     -3.92693000       1
H               4.88995000      0.72139300     -4.82427000       1
H               1.88384000     -5.47273000     -3.92715000       1
P               4.77603000     -5.16320000     -0.78781800      15
I               4.31598000     -5.10922000      2.35617000      53
P               0.24098400     -0.56029500     -7.06530000      15
H               1.50808000      5.05858000     -4.76900000       1
H               0.92180000     -6.27616000      3.25348000       1
I               2.81930000     -2.59032000      6.01666000      53
I              -6.76450000      1.97837000     -1.24950000      53
I               2.71052000      6.50822000     -1.30433000      53
I               2.16957000      1.97843000     -6.60431000      53
H               5.94057000     -1.25313000     -3.92690000       1
I              -4.61811000     -5.10922000      2.35617000      53
H              -0.34273700     -5.46412000     -4.82446000       1
I              -3.68854000     -5.19114000     -3.92692000      53
I               5.13679000      3.90742000     -3.92692000      53
I               2.27833000     -7.12019000     -1.24950000      53
I               2.81930000     -2.59028000     -6.54952000      53
I               7.28262000     -3.16998000     -0.34670900      53
I              -1.76019000      5.92856000      5.05904000      53
P              -4.26679000      3.93537000      5.50015000      15
I              -2.22475000     -7.71287000     -0.26341500      53
I              -2.33351000      1.38571000     -7.59043000      53
P               4.66729000      3.93537000      5.50015000      15
I              -1.65144000     -3.16996000     -7.50713000      53
I              -7.97254000     -0.43221300      2.35617000      53
I               5.24554000     -5.19114000     -3.92692000      53
I               6.60057000      1.38568000      4.97574000      53
H               7.52035000      3.05966000      2.35615000       1
H              -3.02762000      7.56541000      2.35617000       1
H               4.40102000      7.17784000      1.45885000       1
H              -0.45148800      3.63440000      7.74171000       1
P               0.13223800      8.53823000     -0.78854400      15
H              -4.53307000      7.17784000      1.45885000       1
P              -4.15804000     -5.16320000      5.50015000      15
I              -0.45314500     -0.75205500      8.63925000      53
H              -8.12106000      2.82245000      1.45874000       1
P              -8.69310000     -0.56033700     -0.78854400      15
H              -4.04414000      0.72135500      7.74190000       1
H              -7.31708000     -4.04017000     -3.08489000       1
P               4.77605000     -5.16320000      5.50015000      15
H               1.61683000     -4.04002000      7.79717000       1
H              -7.15900000      3.62583000     -3.92715000       1
I              -6.11479000     -2.59032000      6.01666000      53
C              -4.11735000      7.64154000      2.35617000       6
I               0.85279300      8.66635000      2.35617000      53
H               4.40102000      7.17785000      3.25351000       1
H              -4.53306000      7.17785000      3.25351000       1
H              -7.65664000      4.30620000      2.35614000       1
I              -6.22356000      6.50822000     -1.30433000      53
H              -4.42155000     -1.65814000      7.79870000       1
P              -4.26679000      3.93540000     -7.06602000      15
H               4.51253000     -1.65814000      7.79870000       1
H               4.40377000      7.44048000     -3.08633000       1
H               4.88995000      0.72135500      7.74190000       1
H              -8.12104000      2.82241000      3.25348000       1
P               9.17507000     -0.56033700     -0.78854400      15
H              -2.99351000     -1.25317000      8.63927000       1
I              -6.76452000      1.97839000      5.96186000      53
I              -0.56189500      8.34654000     -3.92692000      53
H              -4.53031000      7.44048000     -3.08633000       1
H               7.95561000      4.45423000      1.51481000       1
H              -7.54789000     -4.79237000      2.35614000       1
I               2.71055000      6.50824000      6.01666000      53
C              -8.29445000      3.42015000      2.35612000       6
H               3.39590000      0.29231300      8.63924000       1
H              -3.10227000      7.84543000     -3.92690000       1
I               7.17387000      5.92858000     -0.34670900      53
I              -6.11479000     -2.59028000     -6.54952000      53
N               8.15980000      3.87052000      2.35616000       7
C               4.81674000      7.64154000      2.35617000       6
P               4.66730000      3.93540000     -7.06602000      15
I               8.48094000     -0.75201700     -3.92692000      53
H               1.50808000      5.05855000      7.79717000       1
I               7.28264000     -3.17000000      5.05904000      53
H               8.06436000     -4.64433000      1.51481000       1
I              -2.22476000     -7.71289000      4.97574000      53
H              -0.34273700     -5.46416000      7.74171000       1
H              -7.42583000      5.05839000     -3.08489000       1
H              -0.65592000     -3.94218000      8.63950000       1
H               1.77508000      3.62580000      8.63902000       1
I               2.27832000     -7.12017000      5.96186000      53
H              -3.86968000     -8.65027000      1.51629000       1
N              -4.03516000     -1.18236000      8.63927000       7
C              -0.21706500      4.21131000      8.63932000       6
I               2.71055000      6.50828000     -6.54952000      53
H              -7.31725000     -4.03998000     -4.76900000       1
I              -6.76452000      1.97843000     -6.60431000      53
H               7.95563000      4.45421000      3.19753000       1
P              -4.15804000     -5.16316000     -7.06602000      15
P               0.34973900     -9.65890000     -0.78854400      15
N              -7.58758000     -4.58809000     -3.92698000       7
H               8.48279000      3.63422000     -3.02934000       1
C              -4.44674000      0.24627800      8.63925000       6
I              -1.76019000      5.92860000     -7.50713000      53
C               4.48735000      0.24627800      8.63925000       6
H              -3.93540000     -8.37715000     -3.02958000       1
N              -7.69633000      4.51047000     -3.92698000       7
H              -7.05025000     -5.47273000     -3.92715000       1
N              -4.14391000      7.91624000     -3.92690000       7
H               0.81304900      2.82244000     -9.31269000       1
N               1.23775000      4.51043000      8.63919000       7
I              -6.65575000     -7.12019000     -1.24950000      53
H               8.06438000     -4.64436000      3.19753000       1
H               4.40378000      7.44046000     -4.76747000       1
N               1.34650000     -4.58813000      8.63919000       7
I               1.07029000     -9.53078000      2.35617000      53
H               5.90646000      7.56541000      2.35617000       1
C              -0.10831500     -4.88725000      8.63932000       6
H              -4.53030000      7.44046000     -4.76747000       1
P               4.77605000     -5.16316000     -7.06602000      15
H               8.27816000     -3.94214000     -3.92668000       1
I               2.27832000     -7.12013000     -6.60431000      53
H              -3.86968000     -8.65026000      3.19603000       1
N               4.89893000     -1.18236000      8.63927000       7
H               3.62421000     -9.02101000      2.35616000       1
H               7.62910000     -6.03891000      2.35615000       1
N               4.79018000      7.91624000     -3.92690000       7
N               8.26855000     -5.22804000      2.35616000       7
H               3.40671000      9.17611000      2.35616000       1
H              -0.76467100      5.15638000      8.63950000       1
H               5.06441000     -8.65027000      1.51629000       1
