200
cutoff_factor=1.20000000 nneightol=1.20000000 Lattice="27.15830000       0.00000000       0.00000000       0.00000000      28.66365000       0.00000000       0.00000000       0.00000000      28.95520000" Properties=species:S:1:pos:R:3:Z:I:1
H              -0.36514400      0.43388400     -0.20657200       1
C              -1.21433000      1.11478000     -0.29169100       6
H              -2.15193000      0.57053700     -0.16147300       1
H              -1.19947000      1.62965000     -1.25497000       1
N              -1.10961000      2.13171000      0.79187300       7
H              -1.11689000      1.68559000      1.73118000       1
H              -0.22289600      2.67296000      0.73242100       1
I               1.99315000     -0.24114200     -1.94805000      53
I              -1.23222000     -2.85552000     -0.17599100      53
I               2.00822000     -0.96904100      2.54401000      53
P               1.99994000     -2.80310000     -0.06844160      15
H              -1.92060000      2.78201000      0.77492400       1
H              -1.06739000     -2.45112000     -2.83279000       1
H              -0.85707700     -1.25350000     -4.01532000       1
H               4.29469000      0.57053700     -0.16147300       1
H              -1.25385000     -2.75151000      3.15416000       1
I               2.11311000      3.47953000      1.72379000      53
N              -0.79309900     -2.27088000     -3.81962000       7
H               0.20120500     -2.55953000     -3.91331000       1
I              -1.13988000      1.53149000      4.33116000      53
I              -4.45348000     -0.24114200     -1.94805000      53
I              -1.21099000      1.44924000     -4.60462000      53
H              -0.78597200     -1.17124000      4.92046000       1
P               2.09447000      1.70007000      4.43440000      15
P               2.02336000      1.61783000     -4.50138000      15
I              -4.43841000     -0.96904100      2.54401000      53
P              -4.44669000     -2.80310000     -0.06844160      15
C               5.23230000      1.11478000     -0.29169100       6
C              -1.57775000     -2.96682000      4.17496000       6
H               4.52603000      2.78201000      0.77492400       1
I               2.01549000      4.29507000     -2.77996000      53
H               0.27233400     -2.47724000      5.02246000       1
N              -0.72197300     -2.18862000      5.11617000       7
H               5.24716000      1.62965000     -1.25497000       1
H              -2.61587000     -2.66038000      4.31992000       1
I               1.92310000     -4.63091000     -2.77996000      53
N               5.33702000      2.13171000      0.79187300       7
I              -4.33352000      3.47953000      1.72379000      53
H               5.32974000      1.68559000      1.73118000       1
C              -1.64888000     -3.04906000     -4.76085000       6
I               5.21441000     -2.85552000     -0.17599100      53
H              -2.68699000     -2.74260000     -4.61591000       1
I               2.02072000     -5.44646000      1.72379000      53
H               6.08148000      0.43388400     -0.20657200       1
H              -1.45960000     -4.02938000      4.39915000       1
I              -1.13983000      6.07046000     -0.17599100      53
H              -0.31528500     -6.25303000      0.73242100       1
H              -1.53075000     -4.11163000     -4.53666000       1
H               3.83075000     -2.66038000      4.31992000       1
P              -4.35216000      1.70007000      4.43440000      15
P               2.09233000      6.12288000     -0.06844160      15
H              -2.01299000     -6.14398000      0.77492400       1
P              -4.42327000      1.61783000     -4.50138000      15
H               3.75963000     -2.74260000     -4.61591000       1
H               5.37924000     -2.45112000     -2.83279000       1
H              -1.32495000     -2.83376000     -5.78164000       1
H              -0.99624500     -2.36885000      6.10301000       1
H               5.19278000     -2.75151000      3.15416000       1
H              -1.36721000      4.89660000      4.39915000       1
I               1.93710000     -1.05128000     -6.39178000      53
I              -4.43114000      4.29507000     -2.77996000      53
H              -1.43836000      4.81435000     -4.53666000       1
H               6.22373000      2.67296000      0.73242100       1
H              -6.81177000      0.43388400     -0.20657200       1
N              -1.20200000     -6.79427000      0.79187300       7
H               5.58955000     -1.25350000     -4.01532000       1
I               5.30674000      1.53149000      4.33116000      53
H              -1.16146000      6.17447000      3.15416000       1
I              -4.52352000     -4.63091000     -2.77996000      53
C               4.86887000     -2.96682000      4.17496000       6
I               5.23563000      1.44924000     -4.60462000      53
H              -0.97500200      6.47486000     -2.83279000       1
N               5.65353000     -2.27088000     -3.81962000       7
H              -6.66952000      2.67296000      0.73242100       1
I              -4.42590000     -5.44646000      1.72379000      53
I               2.06426000     -0.15890100      6.98773000      53
C               4.79775000     -3.04906000     -4.76085000       6
C              -1.48536000      5.95917000      4.17496000       6
H              -1.18799000      1.60331000     -7.20462000       1
H               0.29359300      6.36646000     -3.91331000       1
P              -4.35430000      6.12288000     -0.06844160      15
H              -1.29186000     -7.29633000     -1.25497000       1
H              -1.20927000     -7.24039000      1.73118000       1
H               5.66066000     -1.17124000      4.92046000       1
H               4.43364000     -6.14398000      0.77492400       1
N              -0.70071000      6.65510000     -3.81962000       7
C              -1.55649000      5.87692000     -4.76085000       6
C              -7.66095000      1.11478000     -0.29169100       6
H               4.98703000     -4.02938000      4.39915000       1
H              -6.24542000     -2.55953000     -3.91331000       1
I               2.08660000      4.37730000      6.15583000      53
H               4.91588000     -4.11163000     -4.53666000       1
N              -7.55624000      2.13171000      0.79187300       7
I              -4.50952000     -1.05128000     -6.39178000      53
I               1.99421000     -4.54868000      6.15583000      53
H              -7.64609000      1.62965000     -1.25497000       1
C              -1.30671000     -7.81120000     -0.29169100       6
H              -7.56351000      1.68559000      1.73118000       1
H              -1.12834000      1.71203000      7.68080000       1
N               5.72465000     -2.18862000      5.11617000       7
H              -2.52348000      6.26560000      4.31992000       1
I               5.30680000      6.07046000     -0.17599100      53
H               6.64783000     -2.55953000     -3.91331000       1
H              -2.59461000      6.18338000     -4.61591000       1
H               0.36472300      6.44874000      5.02246000       1
I              -7.67884000     -2.85552000     -0.17599100      53
H               5.12167000     -2.83376000     -5.78164000       1
I               2.04201000      3.39728000     -7.21199000      53
I              -4.38237000     -0.15890100      6.98773000      53
H               5.00826000      4.81435000     -4.53666000       1
H               5.07941000      4.89660000      4.39915000       1
H              -6.17429000     -2.47724000      5.02246000       1
H              -7.51402000     -2.45112000     -2.83279000       1
H              -7.30370000     -1.25350000     -4.01532000       1
N              -1.18070000      2.04948000     -8.14391000       7
N              -0.62958500      6.73736000      5.11617000       7
H              -1.23256000      6.09222000     -5.78164000       1
N              -7.23973000     -2.27088000     -3.81962000       7
H              -0.45753300     -8.49210000     -0.20657200       1
H               5.45038000     -2.36885000      6.10301000       1
H               3.92314000      6.26560000      4.31992000       1
H              -0.29397700      2.59070000     -8.20333000       1
I               2.10061000      7.95694000      2.54401000      53
H              -8.59856000      0.57053700     -0.16147300       1
N               5.24463000     -6.79427000      0.79187300       7
H               3.85202000      6.18338000     -4.61591000       1
H              -2.24432000     -8.35545000     -0.16147300       1
I              -1.23227000     -7.39449000      4.33116000      53
I               8.43977000     -0.24114200     -1.94805000      53
H              -0.76468900      7.67248000     -4.01532000       1
P               2.00208000     -7.22591000      4.43440000      15
H               5.28516000      6.17447000      3.15416000       1
I              -4.36003000      4.37730000      6.15583000      53
H               6.71896000     -2.47724000      5.02246000       1
H              -0.29404100      0.51618800      8.72914000       1
H              -7.70048000     -2.75151000      3.15416000       1
H               6.13134000     -6.25303000      0.73242100       1
P               1.93097000     -7.30816000     -4.50138000      15
C              -1.14321000      1.19711000      8.64405000       6
C               4.96126000      5.95917000      4.17496000       6
H              -1.99168000      2.69979000     -8.16083000       1
H              -7.23260000     -1.17124000      4.92046000       1
H              -8.36723000      2.78201000      0.77492400       1
I              -4.45242000     -4.54868000      6.15583000      53
I              -7.58651000      1.53149000      4.33116000      53
I              -1.30338000     -7.47674000     -4.60462000      53
I               8.45484000     -0.96904100      2.54401000      53
P               8.44657000     -2.80310000     -0.06844160      15
H               5.47163000      6.47486000     -2.83279000       1
H              -0.90385600      6.55713000      6.10301000       1
C               4.89014000      5.87692000     -4.76085000       6
H               5.15477000     -7.29633000     -1.25497000       1
H              -2.08083000      0.65287900      8.77424000       1
I              -7.65762000      1.44924000     -4.60462000      53
H               5.25864000      1.60331000     -7.20462000       1
N              -7.16860000     -2.18862000      5.11617000       7
H               5.23735000     -7.24039000      1.73118000       1
I              -4.40462000      3.39728000     -7.21199000      53
I               2.08553000      8.68484000     -1.94805000      53
H              -0.43627300      0.35168100     -9.14244000       1
H              -0.69358300      7.75474000      4.92046000       1
H              -6.76191000     -6.25303000      0.73242100       1
I              -1.16110000     -2.77327000      8.75980000      53
I               1.94962000     -5.52870000     -7.21199000      53
H               4.20231000     -8.35545000     -0.16147300       1
C               5.13991000     -7.81120000     -0.29169100       6
H              -0.27275600      9.35987000     -0.20657200       1
C              -1.28544000      1.03260000     -9.22753000       6
H              -2.22306000      0.48837200     -9.09734000       1
I               8.55974000      3.47953000      1.72379000      53
I              -4.34602000      7.95694000      2.54401000      53
H               5.31829000      1.71203000      7.68080000       1
P               2.07106000     -2.72084000      8.86735000      15
C              -8.02438000     -2.96682000      4.17496000       6
I               1.90076000     -9.16713000     -1.94805000      53
P              -4.44455000     -7.22591000      4.43440000      15
N               5.74592000      6.65510000     -3.81962000       7
P               1.92883000     -2.88535000     -9.00423000      15
I              -1.30333000     -2.93777000     -9.11178000      53
H              -6.15303000      6.36646000     -3.91331000       1
H               4.45495000      2.69979000     -8.16083000       1
P              -4.51565000     -7.30816000     -4.50138000      15
I              -7.58646000      6.07046000     -0.17599100      53
H              -2.05954000      9.49652000     -0.16147300       1
P               8.46999000      1.61783000     -4.50138000      15
P               8.54110000      1.70007000      4.43440000      15
H               4.36580000      0.65287900      8.77424000       1
C              -8.09550000     -3.04906000     -4.76085000       6
H               5.21406000      6.09222000     -5.78164000       1
I               8.46212000      4.29507000     -2.77996000      53
H              -7.90623000     -4.02938000      4.39915000       1
I              -4.36109000      8.68484000     -1.94805000      53
N               5.26593000      2.04948000     -8.14391000       7
H              -7.44287000     -2.36885000      6.10301000       1
I               8.36973000     -4.63091000     -2.77996000      53
N              -1.03847000      2.21398000      9.72767000       7
I               5.21435000     -7.39449000      4.33116000      53
H               4.22357000      0.48837200     -9.09734000       1
H              -0.15174500      2.75521000      9.66825000       1
H              -7.97738000     -4.11163000     -4.53666000       1
