200
cutoff_factor=1.20000000 nneightol=1.20000000 Lattice="28.25436000       0.00000000       0.00000000       0.00000000      29.45098000       0.00000000       0.00000000       0.00000000      29.08728000" Properties=species:S:1:pos:R:3:Z:I:1
H              -1.24154000     -0.06599580     -0.40713100       1
C              -2.26670000      0.15399600     -0.10280600       6
I               0.91955900     -2.14550000     -0.03815820      53
H              -2.27526000      0.68276800      0.85245400       1
I               1.09869000      2.19688000      1.52940000      53
P               2.85764000      0.35461200     -0.45087300      15
H              -2.85358000     -0.76511500     -0.03818640       1
N              -2.88247000      1.03957000     -1.13555000       7
H              -2.36544000      1.93593000     -1.24245000       1
I               1.21291000      1.42216000     -2.96678000      53
H              -2.89855000      0.60128900     -2.07987000       1
H               1.41799000     -2.38607000      2.47518000       1
H              -3.86332000      1.30152000     -0.90400500       1
H               1.28778000     -1.36128000     -3.96763000       1
H               1.74750000      4.03123000     -0.68958600       1
I              -2.31742000      0.17131500      3.84443000      53
H              -0.26055200     -1.83925000      4.14817000       1
N               1.43123000     -2.84416000      3.41057000       7
H               1.31246000     -1.05064000      4.50814000       1
H               0.34356600     -2.88318000     -3.86802000       1
P              -0.77011700     -4.81372000     -0.47130500      15
C               0.77659700     -2.00006000      4.44564000       6
P              -0.71961900      2.91719000      4.05596000      15
C               1.24128000     -2.40944000     -4.26766000       6
I               4.55161000     -0.66418300      2.13316000      53
H               0.95459700     -3.76151000      3.29413000       1
I              -3.09736000     -3.75237000      1.51086000      53
I              -2.32352000     -3.63134000     -2.95753000      53
H               0.78521100      4.79437000     -1.99693000       1
C               1.59531000      4.93644000     -1.27964000       6
H               2.41903000     -3.05867000      3.65806000       1
H               2.13412000     -2.94227000     -3.93231000       1
I              -2.12352000      4.35268000     -2.34297000      53
I               4.72008000     -1.45099000     -2.38442000      53
I              -2.95721000      0.59755400     -4.69720000      53
I              -2.99882000      4.30339000      2.16557000      53
I               4.95462000      2.77009000     -0.74991700      53
H               0.36147600      5.82216000      0.14970600       1
P              -0.74419400      2.94098000     -4.99383000      15
H               4.80868000      1.74503000      2.96751000       1
H               4.03096000      3.22990000      2.91135000       1
H               4.76638000     -3.47410000     -0.91204900       1
H               0.81983400     -2.53094000      5.39805000       1
H               2.51639000      5.21151000     -1.79754000       1
H               4.03654000     -4.57681000      0.14970600       1
N               1.22401000      6.04712000     -0.35893800       7
H               4.43039000      2.65681000     -3.64510000       1
P              -4.35475000     -2.24676000      4.04932000      15
N               1.18623000     -2.47255000     -5.75838000       7
I               1.34833000      1.57988000      6.08562000      53
H               0.35911600     -1.98132000     -6.13179000       1
N               4.85808000      2.73867000      3.28477000       7
I               0.67624100     -6.09557000      2.16557000      53
H               2.00716000      6.21853000      0.31140200       1
N               4.89907000     -4.35185000     -0.35893800       7
I              -6.00284000      2.77009000     -0.74991700      53
I               1.55154000     -6.04628000     -2.34297000      53
H              -5.27524000     -4.18044000      0.31140200       1
H              -5.24031000      3.16772000      2.87794000       1
I              -6.40586000     -0.66418300      2.13316000      53
H               2.04531000     -2.04350000     -6.16520000       1
H               3.35001000      3.34850000     -4.89498000       1
I              -6.23739000     -1.45099000     -2.38442000      53
H               4.01541000      2.32804000      5.17513000       1
P              -4.39147000     -2.29403000     -4.98719000      15
H              -6.14878000      1.74503000      2.96751000       1
H               5.68222000     -4.18044000      0.31140200       1
H               1.09132000      6.92486000     -0.91204900       1
H               1.13684000     -3.46619000     -6.07564000       1
C               4.38716000      3.18768000     -4.59750000       6
H               5.71715000      3.16772000      2.87794000       1
P              -4.44518000      5.58525000     -0.47130500      15
H              -6.19109000     -3.47410000     -0.91204900       1
H               7.09415000      1.30152000     -0.90400500       1
H              -4.76602000     -5.18745000     -1.79754000       1
I               0.71463500      5.80877000      4.34595000      53
H              -1.09417000      0.02376660      7.24560000       1
C               4.91313000      2.80178000      4.77549000       6
H               4.46027000     -5.60460000     -1.99693000       1
N              -6.09939000      2.73867000      3.28477000       7
N              -6.05840000     -4.35185000     -0.35893800       7
H               4.56516000      1.42624000     -5.74901000       1
I              -2.39765000     -3.76558000      6.07636000      53
I               1.29314000      5.35906000     -5.19872000      53
H              -2.82535000     -0.39337900      7.04622000       1
H              -5.15150000      2.26895000      5.11084000       1
H              -4.92787000      2.12907000     -5.38509000       1
I               0.51320400      1.43537000     -7.53229000      53
I               4.38969000     -4.59019000      4.34595000      53
C               5.27037000     -5.46252000     -1.27964000       6
H               4.92302000      4.13710000     -4.53501000       1
H              -2.72046000      6.63746000      3.29413000       1
N               5.04179000      2.34359000     -5.63258000       7
H              -6.52707000      2.65681000     -3.64510000       1
H              -1.56525000     -7.23124000      2.87794000       1
C              -5.68709000     -5.46252000     -1.27964000       6
I               4.18505000      6.64659000      1.51086000      53
I              -2.32779000     -7.62888000     -0.74991700      53
C              -2.01525000     -0.25130000      7.76351000       6
H               5.80597000      2.26895000      5.11084000       1
P               6.60271000     -2.24676000      4.04932000      15
I              -2.56554000      3.76023000      6.65873000      53
H               4.95962000      3.84994000      5.07551000       1
H              -2.35939000     -6.26186000     -4.53501000       1
P              -8.09983000      0.35461200     -0.45087300      15
H               8.10389000     -0.76511500     -0.03818640       1
I               4.28680000     -0.90783100     -6.87758000      53
H              -6.92650000      3.22990000      2.91135000       1
C              -6.04434000      2.80178000      4.77549000       6
N               8.07500000      1.03957000     -1.13555000       7
H               6.19145000     -5.18745000     -1.79754000       1
H              -1.25603000      7.34029000      3.65806000       1
H              -6.92093000     -4.57681000      0.14970600       1
H               8.05892000      0.60128900     -2.07987000       1
H               6.02959000      2.12907000     -5.38509000       1
H               5.42256000     -6.36773000     -0.68958600       1
H              -3.25144000     -7.16906000      2.91135000       1
H              -5.53490000     -6.36773000     -0.68958600       1
I              -2.57316000     -3.01434000     -7.51375000      53
N              -5.91567000      2.34359000     -5.63258000       7
I               5.22339000     -0.83506100      6.70018000      53
P               6.56600000     -2.29403000     -4.98719000      15
H              -1.54094000      7.45669000     -3.93231000       1
N              -2.24383000      7.55481000      3.41057000       7
P               6.51229000      5.58525000     -0.47130500      15
H              -2.32278000     -6.54903000      5.07551000       1
H              -6.03445000      4.13710000     -4.53501000       1
C              -6.57031000      3.18768000     -4.59750000       6
H              -1.86306000     -1.15651000      8.35356000       1
H               1.30961000     -8.46303000     -1.24245000       1
N              -2.42433000     -7.66029000      3.28477000       7
H              -2.25707000      8.01290000      2.47518000       1
H              -2.51924000      1.73712000      8.13110000       1
C               8.69077000      0.15399600     -0.10280600       6
I              -2.75550000      8.25346000     -0.03815820      53
H              -6.39231000      1.42624000     -5.74901000       1
I              -2.79530000      4.52356000     -6.90999000      53
H               5.02855000      2.80168000     -6.56797000       1
I               1.34406000     -2.41766000      8.29323000      53
H              -5.99784000      3.84994000      5.07551000       1
H               8.68221000      0.68276800      0.85245400       1
I               4.96820000     -5.03991000     -5.19872000      53
H              -6.49720000     -5.60460000     -1.99693000       1
I               7.86011000     -3.75237000      1.51086000      53
I              -5.73408000     -0.83506100      6.70018000      53
H               8.59202000      1.93593000     -1.24245000       1
I               4.95889000      6.76762000     -2.95753000      53
H              -1.66468000      1.00731000     -8.73175000       1
H              -6.94205000      2.32804000      5.17513000       1
P               2.95544000     -7.48178000      4.05596000      15
H              -2.85201000     -7.74216000     -3.64510000       1
C              -2.89525000     -7.21129000     -4.59750000       6
N              -2.38655000      0.85937400      8.68421000       7
P               2.90173000      0.39750100      8.57184000      15
H              -3.33149000      7.51578000     -3.86802000       1
H               0.77330100      5.81251000      6.96328000       1
I               0.87975900     -5.87540000     -6.90999000      53
I              -6.56777000     -4.59019000      4.34595000      53
H              -0.18825700     -9.09744000     -0.90400500       1
C              -2.36928000     -7.59719000      4.77549000       6
H              -5.92892000      2.80168000     -6.56797000       1
I               8.00025000      0.59755400     -4.69720000      53
I               7.95865000      4.30339000      2.16557000      53
I               1.04502000      8.94797000     -2.38442000      53
C              -2.43378000      7.98952000     -4.26766000       6
I              -5.98926000     -5.03991000     -5.19872000      53
H              -3.93240000     -7.05047000     -4.89498000       1
P               2.93086000     -7.45798000     -4.99383000      15
H               4.44836000     -4.58645000      6.96328000       1
I               8.64005000      0.17131500      3.84443000      53
N               0.79259200     -9.35940000     -1.13555000       7
I               1.10952000     -6.63874000      6.65873000      53
H              -2.47372000     -8.65394000      2.96751000       1
H              -3.31037000      0.61093600     -8.89344000       1
I              -5.99858000      6.76762000     -2.95753000      53
H              -1.60340000      1.03078000      9.35455000       1
H              -2.53822000      6.93277000     -6.07564000       1
P               2.92765000      8.15220000      4.04932000      15
I              -6.77242000      6.64659000      1.51086000      53
I               4.77375000     -8.20208000      1.52940000      53
I              -6.67067000     -0.90783100     -6.87758000      53
H              -7.60746000      3.34850000     -4.89498000       1
H               3.48359000     -3.88622000      8.13914000       1
H              -1.47644000     -8.13001000      5.11084000       1
H               9.71593000     -0.06599580     -0.40713100       1
N              -2.44784000      0.83589800     -9.40209000       7
H              -3.24908000      0.63441200      9.19285000       1
H              -8.53843000     -3.05867000      3.65806000       1
H               4.98146000     -3.25181000      7.80070000       1
I               8.63395000     -3.63134000     -2.95753000      53
H               1.39980000     -9.71620000      0.85245400       1
P              -0.75292200     -4.83313000      8.59227000      15
C              -2.89846000      8.39890000      4.44564000       6
P               2.84044000      0.37402400     -9.51445000      15
P               2.89094000      8.10493000     -4.98719000      15
H              -1.25281000     -8.26989000     -5.38509000       1
H              -2.85523000      7.86803000      5.39805000       1
N               4.46444000     -4.14818000      7.90760000       7
H              -1.92434000     -1.17999000     -9.73273000       1
I               0.87654800      9.73478000      2.13316000      53
