200
cutoff_factor=1.20000000 nneightol=1.20000000 Lattice="28.60831000       0.00000000       0.00000000       0.00000000      29.29669000       0.00000000       0.00000000       0.00000000      26.83581000" Properties=species:S:1:pos:R:3:Z:I:1
P              -0.25212700      0.64444700      1.16748000      15
I               1.91139000     -0.50678800     -0.99909000      53
I              -2.29711000     -1.74272000      0.55745300      53
I              -1.56277000      2.30134000     -1.27731000      53
H              -1.95733000     -1.66004000     -1.95263000       1
H               1.94975000      1.91908000     -2.15689000       1
H              -1.19273000     -1.19358000     -3.39088000       1
I               1.12815000     -1.02275000      3.50301000      53
H               1.58744000     -3.53235000      0.34107500       1
I               1.75341000      3.10811000      1.63224000      53
N              -2.05549000     -1.58269000     -2.98908000       7
H               1.21313000      3.36562000     -1.75955000       1
H               4.17120000     -0.27440300      0.29252600       1
N               1.93200000      2.93524000     -2.37183000       7
H              -2.85267000     -0.92808000     -3.14760000       1
I              -2.24174000      2.06387000      3.23599000      53
H               0.58827000      2.74931000     -3.98769000       1
H               2.85360000      3.35050000     -2.12765000       1
C               1.61913000     -4.59917000      0.57368400       6
H               4.24179000      1.25138000      2.17097000       1
H              -5.02293000     -0.39252400      0.27367800       1
N               5.03254000     -0.21526100      0.87529000       7
H               0.67992200     -5.08042000      0.29220900       1
H               1.01936000     -4.32905000      2.56914000       1
H              -1.56235000     -3.60514000     -3.33993000       1
H               0.95254900      2.51451000      4.40628000       1
C              -2.37933000     -2.91934000     -3.56883000       6
C               1.57353000      3.18186000     -3.79949000       6
P               3.45484000     -2.04577000     -3.39917000      15
H               4.99259000     -0.97950400      1.58368000       1
H              -1.38167000     -2.31223000      4.62291000       1
H              -1.26184000      5.26583000      0.06447630       1
H              -4.84939000      1.12156000      2.16614000       1
H              -1.88661000      4.57760000      2.30770000       1
C               5.12946000      1.11374000      1.54949000       6
N               1.80813000     -4.75737000      2.04747000       7
H              -2.14997000     -0.75688600      5.08365000       1
H               5.18333000      1.88815000      0.78214700       1
H              -3.30886000     -3.27417000     -3.11842000       1
H               2.68952000     -4.31015000      2.36540000       1
H               2.45933000     -5.07659000      0.06447630       1
H               2.32570000      2.70527000     -4.43139000       1
I               1.25391000     -4.28393000     -3.63200000      53
H               5.85633000     -0.39252400      0.27367800       1
I               1.97294000     -0.18624600     -5.55726000      53
N              -5.84672000     -0.21526100      0.87529000       7
C              -2.13384000     -1.83564000      5.25481000       6
H              -2.49817000     -2.81042000     -4.64802000       1
I              -5.11376000      0.24190700     -3.10867000      53
P              -3.80405000      3.18848000     -3.36264000      15
P              -3.78822000     -4.53755000      1.17383000      15
H               1.55741000      4.26061000     -3.97064000       1
H              -5.69593000      1.88815000      0.78214700       1
C              -5.74980000      1.11374000      1.54949000       6
H              -3.04124000      5.26201000      0.29220900       1
C               1.07139000      2.40559000      5.48546000       6
C              -2.10203000      5.74326000      0.57368400       6
H              -5.88667000     -0.97950400      1.58368000       1
N              -1.91304000      5.58506000      2.04747000       7
H               1.88837000      1.71979000      5.71436000       1
H               0.14186300      2.05076000      5.93587000       1
H              -3.11910000     -2.26819000      5.06660000       1
I               5.04124000     -3.78417000     -1.23781000      53
H               1.83455000     -5.76483000      2.30770000       1
I              -2.04106000     -6.07556000     -1.06116000      53
H               6.02987000      1.12156000      2.16614000       1
I              -1.73444000     -5.20374000      3.49703000      53
I               5.76550000      0.24190700     -3.10867000      53
H              -1.03165000      6.03228000      2.36540000       1
I              -2.10743000      2.02279000     -5.88439000      53
I               5.06445000     -2.99470000      3.16990000      53
H              -6.70806000     -0.27440300      0.29252600       1
I               5.11703000      4.26686000     -1.06116000      53
I               1.32008000      6.55826000     -1.23781000      53
P               3.36987000      5.80488000      1.17383000      15
P               3.36784000     -1.82902000      5.69166000      15
I              -5.83802000     -3.78417000     -1.23781000      53
H              -2.70180000      6.01337000      2.56914000       1
H              -6.63747000      1.25138000      2.17097000       1
H              -2.13372000      6.81007000      0.34107500       1
H              -0.85377100     -1.66700000      6.92664000       1
N              -1.77537000     -2.08225000      6.68246000       7
I              -5.76223000      4.26686000     -1.06116000      53
I               4.70463000      1.04100000      5.42229000      53
N               1.39523000      3.74224000      6.06521000       7
I              -5.81481000     -2.99470000      3.16990000      53
H               2.25799000      4.13135000      5.66342000       1
H               0.59805500      4.39685000      5.90670000       1
I              -2.46725000      6.05849000     -3.63200000      53
P              -3.97370000      3.27917000      5.65512000      15
H              -1.75763000     -3.09842000      6.89740000       1
H              -2.49424000     -1.65187000      7.29475000       1
P              -0.08084620      0.47994700     -7.88046000      15
I               2.05812000     -4.77559000      5.94562000      53
P              -0.08288420     -7.15395000     -3.36264000      15
I              -1.69731000     -2.21682000     -7.42206000      53
H               0.79107100     -4.07356000     -6.88333000       1
H               4.72674000      0.68844200     -6.48515000       1
H              -4.48237000      0.70734800     -6.68889000       1
I               1.34329000      7.34773000      3.16990000      53
H               1.49339000      3.66489000      7.10167000       1
I               1.40966000     -0.75063300      7.99313000      53
I               5.42366000      5.13868000      3.49703000      53
I              -5.45560000      5.13868000      3.49703000      53
I              -6.17463000      1.04100000      5.42229000      53
I              -1.66304000      5.56684000      5.94562000      53
I              -2.38730000      1.54076000      7.81648000      53
I               4.83553000      3.99475000     -5.55128000      53
P              -7.42442000     -2.04577000     -3.39917000      15
I               2.15840000     -8.04109000     -1.27731000      53
I               5.18680000     -3.26106000     -5.81830000      53
P               7.07521000      3.18848000     -3.36264000      15
H               2.57915000     -4.20337000     -6.88815000       1
H              -4.30449000     -6.99193000     -2.12765000       1
P               7.09104000     -4.53755000      1.17383000      15
H               3.84924000      7.06825000     -3.11842000       1
H              -5.33733000     -0.74733500     -6.74659000       1
H               8.02659000     -0.92808000     -3.14760000       1
H              -1.97476000     -8.45428000      0.78214700       1
H               4.93430000     -6.97680000     -1.75955000       1
I              -2.32257000     -6.34768000     -5.55128000      53
H               5.54193000     -0.74733500     -6.74659000       1
H              -2.17930000      4.03799000     -7.47062000       1
C               1.67874000     -4.21119000     -7.50480000       6
I              -5.69246000     -3.26106000     -5.81830000      53
I               8.58215000     -1.74272000      0.55745300      53
H               7.57040000     -3.27417000     -3.11842000       1
N              -5.36376000      0.26012900     -7.00683000       7
N               5.51550000      0.26012900     -7.00683000       7
H              -8.02566000      3.35050000     -2.12765000       1
H              -6.15252000      0.68844200     -6.48515000       1
P              -0.26632400      8.29666000     -3.39917000      15
H               5.27857000     -6.08182000     -3.97064000       1
I               1.47942000     -8.27856000      3.23599000      53
I              -8.96787000     -0.50678800     -0.99909000      53
P              -0.25253400     -7.06326000      5.65512000      15
H               1.73261000     -3.43678000     -8.27215000       1
I              -6.04373000      3.99475000     -5.55128000      53
H              -5.60069000     -6.08182000     -3.97064000       1
I              -5.40469000     -7.23432000      1.63224000      53
H              -5.28352000      6.73729000     -3.33993000       1
I               1.41027000      3.27478000     -8.49684000      53
I               5.47457000     -7.23432000      1.63224000      53
I               1.46563000      7.08136000     -5.81830000      53
H               6.39689000      0.70734800     -6.68889000       1
H               8.92193000     -1.66004000     -1.95263000       1
H              -1.14201000      6.13906000     -6.88815000       1
H              -5.94496000     -6.97680000     -1.75955000       1
N              -5.22609000     -7.40718000     -2.37183000       7
H               5.59574000      6.73729000     -3.33993000       1
H              -8.92951000      1.91908000     -2.15689000       1
H               4.31922000     -5.94558000      5.90670000       1
H               7.83802000      5.26201000      0.29220900       1
N               8.82377000     -1.58269000     -2.98908000       7
I               8.63752000      2.06387000      3.23599000      53
P               6.90556000      3.27917000      5.65512000      15
C               4.77877000      7.42308000     -3.56883000       6
H              -1.12822000     -9.22086000      2.16614000       1
H               7.76015000     -2.26819000      5.06660000       1
H              -8.18974000     -4.31015000      2.36540000       1
P              -7.50939000      5.80488000      1.17383000      15
C              -2.02863000     -9.22869000      1.54949000       6
H               1.27142000      9.36292000      1.58368000       1
H               4.30943000     -7.59312000     -3.98769000       1
P              -7.51142000     -1.82902000      5.69166000      15
N               5.65317000     -7.40718000     -2.37183000       7
C               8.49993000     -2.91934000     -3.56883000       6
I               9.31649000      2.30134000     -1.27731000      53
C               5.29470000     -7.16057000     -3.79949000       6
N              -8.94726000      2.93524000     -2.37183000       7
N              -2.13935000      4.80223000     -8.17900000       7
H              -4.90011000     -6.21108000      5.66342000       1
H              -2.93009000      6.26887000     -6.88333000       1
I              -9.12585000      3.10811000      1.63224000      53
I              -5.27014000     -2.71616000      7.77699000      53
H              -2.91630000     -9.09105000      2.17097000       1
H               4.38730000     -0.06292480     -8.76208000       1
H               6.57477000     -6.99193000     -2.12765000       1
H              -8.41993000     -5.07659000      0.06447630       1
C              -5.58456000     -7.16057000     -3.79949000       6
P              -3.70285000     -4.68048000     -7.88681000      15
I               4.86099000      8.59971000      0.55745300      53
H               1.54187000     -6.30443000     -7.47062000       1
C              -2.04242000      6.13123000     -7.50480000       6
I              -1.79598000     -5.52428000      8.05520000      53
H              -9.29182000     -3.53235000      0.34107500       1
I               5.60912000     -2.71616000      7.77699000      53
H               8.38109000     -2.81042000     -4.64802000       1
H               4.65992000      7.53200000     -4.64802000       1
N               1.58182000     -5.54019000     -8.17900000       7
H              -8.55356000      2.70527000     -4.43139000       1
H              -1.31556000      4.62497000     -8.78061000       1
C               5.32651000      0.41832900     -8.48061000       6
I              -1.80977000      9.83564000     -0.99909000      53
H              -4.83239000     -7.63716000     -4.43139000       1
H               0.45003400     10.06800000      0.29252600       1
H               4.67371000     -7.82792000      4.40628000       1
H               8.72929000     -0.75688600      5.08365000       1
H              -5.20835000     -8.42335000     -2.15689000       1
C              -5.55275000      0.41832900     -8.48061000       6
