200
cutoff_factor=1.20000000 nneightol=1.20000000 Lattice="28.47563000       0.00000000       0.00000000       0.00000000      29.09048000       0.00000000       0.00000000       0.00000000      29.02624000" Properties=species:S:1:pos:R:3:Z:I:1
I              -0.97193300      1.28855000     -0.43009900      53
P               1.63953000     -0.27999200      0.67464400      15
H              -1.99569000     -0.69582300     -2.06775000       1
H              -1.00902000     -2.03145000     -2.02660000       1
I              -0.26759500     -2.36526000      2.15012000      53
I               1.57945000     -2.12572000     -1.94454000      53
N              -1.95908000     -1.70710000     -2.30172000       7
H              -2.85896000      0.71023700      2.13257000       1
H              -1.54705000      1.53882000      3.03239000       1
H              -2.89118000     -2.31280000     -0.51312300       1
H               1.76775000      1.45071000     -3.19739000       1
I               3.39558000      1.88353000     -1.02828000      53
I               1.76126000      1.70050000      3.22782000      53
C              -2.59018000      1.21604000      3.06252000       6
C              -3.02677000     -2.46293000     -1.58603000       6
H              -2.01943000     -1.82246000     -3.33310000       1
H               0.39009700      1.34132000     -4.20230000       1
N               1.28550000      1.83326000     -4.03552000       7
H               2.31453000      4.04572000     -0.14399800       1
H               0.27272400      4.58710000      1.08591000       1
H              -2.76364000      0.56009500      3.91862000       1
H               1.52815000     -1.32307000      4.39834000       1
P              -2.78247000      3.42680000     -1.99709000      15
H               1.03618000      2.82004000     -3.80763000       1
I               4.19002000     -1.75545000      1.81447000      53
H              -3.99848000     -2.08137000     -1.90765000       1
H              -2.92712000     -3.52085000     -1.83693000       1
H               1.04269000     -4.82687000      1.39781000       1
H              -3.31976000      3.08221000      2.41556000       1
N              -3.45518000      2.42568000      3.20958000       7
I              -4.69562000     -1.75545000      1.81447000      53
I              -2.46677000      1.49623000     -4.52147000      53
N               2.04315000      5.03815000      0.02634890       7
C               1.18843000      5.16107000      1.24519000       6
H               1.74334000      4.76399000      2.09726000       1
H               1.52498000      5.34844000     -0.82125900       1
H               4.88717000     -2.08137000     -1.90765000       1
I              -0.06983680      4.93993000     -2.93883000      53
P              -2.82743000     -3.85088000      3.27894000      15
I              -5.49006000      1.88353000     -1.02828000      53
C               2.04141000     -1.80491000      5.23288000       6
H               4.42488000      2.16550000      3.26415000       1
H              -4.46076000      2.16550000      3.26415000       1
C               2.17443000      1.77393000     -5.23382000       6
H              -3.20599000      2.94350000      4.07466000       1
H               1.60969000     -5.69462000     -0.82125900       1
H               2.37341000      0.72651400     -5.46322000       1
I              -3.06429000      5.17932000      0.70553900      53
C               1.27313000     -5.88200000      1.24519000       6
H               2.24040000     -2.85232000      5.00349000       1
H               3.00507000     -5.46614000      0.12291300       1
P               1.78022000     -3.91643000     -4.58653000      15
H               2.92036000      5.57693000      0.12291300       1
I              -0.90438900     -2.54800000     -5.69547000      53
H               3.10366000      2.29981000     -5.00298000       1
H               2.97065000     -1.27902000      5.46372000       1
N               2.12785000     -6.00491000      0.02634890       7
H               6.02668000      0.71023700      2.13257000       1
H               0.95798900      6.21620000      1.39781000       1
H               5.99446000     -2.31280000     -0.51312300       1
C               5.85888000     -2.46293000     -1.58603000       6
H               0.35742600     -6.45597000      1.08591000       1
I              -2.97959000     -5.86375000      0.70553900      53
H               0.25708300     -2.23751000      6.26440000       1
H               1.66116000      2.25576000     -6.06836000       1
N               5.43046000      2.42568000      3.20958000       7
H               0.90316400     -0.75879900      6.65907000       1
N               1.15249000     -1.74557000      6.43119000       7
I               0.01486480     -6.10314000     -2.93883000      53
H               5.56588000      3.08221000      2.41556000       1
I              -2.59979000     -2.08260000      5.94523000      53
H               1.82804000     -6.27908000      2.09726000       1
I              -1.12210000      4.91624000      4.77123000      53
P               1.56251000      3.54780000      5.88017000      15
C               6.29546000      1.21604000      3.06252000       6
H               5.95853000     -3.52085000     -1.83693000       1
H               6.88996000     -0.69582300     -2.06775000       1
I               3.62916000     -1.79650000     -6.02977000      53
P               6.10317000      3.42680000     -1.99709000      15
P              -7.24611000     -0.27999200      0.67464400      15
H               6.12201000      0.56009500      3.91862000       1
H               2.39923000     -6.99734000     -0.14399800       1
N               6.92657000     -1.70710000     -2.30172000       7
H               5.67966000      2.94350000      4.07466000       1
I              -0.20285000      1.36110000      7.52788000      53
P              -2.69442000     -0.27204400     -7.18777000      15
H              -6.57112000      4.04572000     -0.14399800       1
H               1.63473000     -2.12812000      7.26931000       1
I               3.49615000     -5.37534000      4.43693000      53
I               5.82135000      5.17932000      0.70553900      53
I              -1.03740000     -6.12683000      4.77123000      53
H               6.86621000     -1.82246000     -3.33310000       1
I              -7.30619000     -2.12572000     -1.94454000      53
I               4.30124000      5.55373000     -3.51685000      53
I               4.38594000     -5.48934000     -3.51685000      53
P               6.05822000     -3.85088000      3.27894000      15
I              -4.49970000     -5.48934000     -3.51685000      53
H              -7.11790000      1.45071000     -3.19739000       1
I               3.41145000      5.66773000      4.43693000      53
H              -5.78198000      2.29981000     -5.00298000       1
I               6.41887000      1.49623000     -4.52147000      53
I              -7.12438000      1.70050000      3.22782000      53
I              -4.58440000      5.55373000     -3.51685000      53
I               7.91371000      1.28855000     -0.43009900      53
H              -5.88058000     -5.46614000      0.12291300       1
H               7.33860000      1.53882000      3.03239000       1
H              -5.91500000     -1.27902000      5.46372000       1
H              -5.96528000      5.57693000      0.12291300       1
H              -2.63062000      4.13893000     -6.54808000       1
I              -5.25648000     -1.79650000     -6.02977000      53
H              -3.01182000      7.52222000     -1.83693000       1
P              -2.69777000     -7.61627000     -1.99709000      15
I               4.16823000      1.97490000      6.94985000      53
I               5.90605000     -5.86375000      0.70553900      53
H              -2.98827000     -4.52074000     -6.39205000       1
H               7.87663000     -2.03145000     -2.02660000       1
I              -0.13458100      1.21358000     -8.31658000      53
P              -2.91213000      7.19219000      3.27894000      15
N              -6.84249000      5.03815000      0.02634890       7
H              -6.51223000      0.72651400     -5.46322000       1
I              -4.71742000      1.97490000      6.94985000      53
P               1.69552000      7.12664000     -4.58653000      15
H              -7.35750000     -1.32307000      4.39834000       1
C              -6.71122000      1.77393000     -5.23382000       6
H              -6.64524000     -2.85232000      5.00349000       1
N              -7.60014000      1.83326000     -4.03552000       7
C              -6.84423000     -1.80491000      5.23288000       6
I              -5.38949000     -5.37534000      4.43693000      53
H              -7.14230000      4.76399000      2.09726000       1
I               6.28586000     -2.08260000      5.94523000      53
H              -3.23506000     -7.96086000      2.41556000       1
I              -0.35229600      8.67781000      2.15012000      53
P              -2.91548000     -0.15203600      8.46961000      15
H               1.96106000     -2.70025000     -8.36944000       1
N              -6.75779000     -6.00491000      0.02634890       7
I              -5.47420000      5.66773000      4.43693000      53
H               1.12088000     -8.22303000     -3.80763000       1
H              -1.41403000      5.11766000     -7.43432000       1
H              -7.36066000      5.34844000     -0.82125900       1
C              -2.45717000      4.79487000     -7.40418000       6
I               1.89428000      5.27933000     -7.23888000      53
H              -7.84947000      2.82004000     -3.80763000       1
I               8.61805000     -2.36526000      2.15012000      53
H              -2.15245000     -5.40129000      7.13360000       1
H               1.17570000     -1.24804000     -9.06889000       1
H              -2.97588000      8.73027000     -0.51312300       1
I               1.49475000      8.91734000     -1.94454000      53
C              -3.11147000      8.58014000     -1.58603000       6
H              -7.27596000     -5.69462000     -0.82125900       1
H              -1.09372000      9.01162000     -2.02660000       1
H              -7.84295000     -4.82687000      1.39781000       1
P              -7.10542000     -3.91643000     -4.58653000      15
C              -7.69722000      5.16107000      1.24519000       6
H              -2.23715000      5.64178000      7.13360000       1
N              -3.23746000     -5.03855000     -7.25712000       7
I               1.97898000     -5.76374000     -7.23888000      53
P               6.19123000     -0.27204400     -7.18777000      15
H              -6.48642000     -6.99734000     -0.14399800       1
H              -8.49555000      1.34132000     -4.20230000       1
H              -3.12129000     -8.09957000      4.07466000       1
H              -1.32933000     -5.92541000     -7.43432000       1
C               1.40614000     -2.30316000     -9.22151000       6
H              -3.07298000      6.52233000     -6.39205000       1
H              -2.12870000     -4.27466000      8.39895000       1
P               1.64721000     -7.49526000      5.88017000      15
H              -7.05760000     -6.27908000      2.09726000       1
H              -3.10204000     -4.38202000     -8.05115000       1
I              -9.15324000     -2.36526000      2.15012000      53
C              -7.61252000     -5.88200000      1.24519000       6
H              -7.22449000      2.25576000     -6.06836000       1
H               5.87382000      7.52222000     -1.83693000       1
H              -2.72595000      4.28907000     -8.33414000       1
N              -3.37048000     -8.61739000      3.20958000       7
H               5.89737000     -4.52074000     -6.39205000       1
I              -0.88723200     -9.75451000     -0.43009900      53
H              -8.61292000      4.58710000      1.08591000       1
H               0.49043900     -2.87713000     -9.38080000       1
N              -2.04378000      9.33597000     -2.30172000       7
H               2.15570000      8.19075000      5.00349000       1
I               4.32304000      1.82338000     -8.65224000      53
H              -2.54592000     -6.90414000     -6.54808000       1
I               3.48028000     -9.15954000     -1.02828000      53
H              -4.24305000     -5.29873000     -7.20256000       1
H               1.39197000      1.76961000      9.64544000       1
P               5.97351000      7.19219000      3.27894000      15
N              -2.09209000     -5.28593000      8.16499000       7
I              -4.56261000      1.82338000     -8.65224000      53
I              -9.85758000      1.28855000     -0.43009900      53
H               6.25502000      4.13893000     -6.54808000       1
C              -2.37247000     -6.24820000     -7.40418000       6
N              -3.32217000      6.00452000     -7.25712000       7
H              -3.14483000      3.94339000      8.62977000       1
P               6.18788000     -7.61627000     -1.99709000      15
H              -2.10414000      9.22061000     -3.33310000       1
H              -4.08318000      8.96170000     -1.90765000       1
P              -7.32314000      3.54780000      5.88017000      15
I               1.84597000     -9.34257000      3.22782000      53
H               5.65059000     -7.96086000      2.41556000       1
H               4.64260000     -5.29873000     -7.20256000       1
H              -1.46235000     -9.50424000      3.03239000       1
