200
cutoff_factor=1.20000000 nneightol=1.20000000 Lattice="29.44327000       0.00000000       0.00000000       0.00000000      29.10068000       0.00000000       0.00000000       0.00000000      29.52055000" Properties=species:S:1:pos:R:3:Z:I:1
H               0.93949500     -0.44364900      1.86815000       1
I              -0.76444800     -2.05670000      0.52174600      53
I              -0.30632200      2.44950000      0.46503300      53
P              -2.75349000      0.49040900     -0.01160370      15
H               2.03729000      0.67037300     -1.80630000       1
N               1.75756000     -0.37520800      2.50484000       7
H               2.60655000     -0.30196900      1.91476000       1
H               0.18708400      0.98464900     -3.37009000       1
C               2.19875000      0.56045700     -2.88102000       6
H               1.60454000      1.70188000      2.84036000       1
H               1.83443000     -1.27898000      3.01115000       1
H               2.11806000     -0.48881300     -3.17375000       1
C               1.64548000      0.78496000      3.43238000       6
I              -2.21624000      0.36026300     -3.17440000      53
N               1.14561000      1.33251000     -3.59454000       7
I               3.70488000     -1.62399000     -0.32797400      53
H               0.73036000      0.66316900      4.01443000       1
H              -2.24481000     -2.83758000     -2.16596000       1
H               1.17203000      2.34157000     -3.33642000       1
P               1.72378000     -4.15128000      0.00331709      15
H              -2.42567000     -3.00788000      2.30775000       1
H               3.17429000      0.96278600     -3.16358000       1
I              -3.39114000      0.46372400      3.19106000      53
H               2.51806000      0.79158100      4.08911000       1
H               1.26092000      1.28195000     -4.62081000       1
I               4.08250000      2.91818000     -0.35691200      53
P               1.63542000      4.93203000      0.00331709      15
H              -3.02092000      3.70967000      2.21788000       1
C              -2.69594000     -3.75031000     -2.56110000       6
H              -1.51234000      4.04398000      3.13065000       1
I               1.08850000     -4.21180000     -3.15147000      53
I              -5.16478000     -1.62399000     -0.32797400      53
N              -2.84248000     -3.47943000      3.13808000       7
H              -2.09759000      4.49011000     -2.45662000       1
I               2.33383000     -3.85268000      3.23523000      53
H              -2.43546000     -3.02273000      3.98166000       1
H              -2.00922000     -4.59320000     -2.45662000       1
I              -4.78717000      2.91818000     -0.35691200      53
H              -3.63936000     -3.95908000     -2.05335000       1
C              -2.59941000      4.15138000      3.12348000       6
I               1.00014000      4.87151000     -3.15147000      53
H              -2.12238000     -3.28553000     -4.53601000       1
H              -3.87367000     -3.34617000      3.13436000       1
H              -1.42397000     -5.03933000      3.13065000       1
N              -2.97942000     -3.54509000     -4.01182000       7
P               6.11617000      0.49040900     -0.01160370      15
H              -3.66082000     -2.77623000     -4.15966000       1
H              -3.03476000      3.68886000      4.01208000       1
C              -2.51104000     -4.93192000      3.12348000       6
I               5.47853000      0.46372400      3.19106000      53
I              -0.98486600     -2.15811000      5.96397000      53
I              -0.37787100      2.48658000      5.98984000      53
H              -2.93255000     -5.37363000      2.21788000       1
C              -2.78431000      5.33300000     -2.56110000       6
I               2.24546000      5.23063000      3.23523000      53
H              -6.26312000     -0.30196900      1.91476000       1
H              -5.69538000      0.96278600     -3.16358000       1
I              -0.21795400     -6.63381000      0.46503300      53
H              -3.72773000      5.12423000     -2.05335000       1
H               4.99600000     -3.34617000      3.13436000       1
H               5.23031000     -3.95908000     -2.05335000       1
H              -2.51404000      6.07543000      2.30775000       1
I               3.53917000     -1.44463000     -5.84022000      53
P              -2.87942000      0.51681000      6.34939000      15
P              -2.86512000      0.56746400     -6.35696000      15
H              -2.33318000      6.24572000     -2.16596000       1
N              -2.93085000      5.60388000      3.13808000       7
I              -0.85281700      7.02661000      0.52174600      53
H              -6.83238000      0.67037300     -1.80630000       1
H              -3.38849000     -4.39625000     -4.45556000       1
I              -0.97056300     -2.10746000     -6.74238000      53
I              -0.36356800      2.53723000     -6.71651000      53
H               5.20885000     -2.77623000     -4.15966000       1
H               5.84875000      3.70967000      2.21788000       1
C              -6.67092000      0.56045700     -2.88102000       6
H              -2.94639000     -5.39445000      4.01208000       1
H              -3.47686000      4.68705000     -4.45556000       1
I               6.65343000      0.36026300     -3.17440000      53
I               4.17087000     -6.16513000     -0.35691200      53
H              -6.75161000     -0.48881300     -3.17375000       1
H               6.44400000     -3.00788000      2.30775000       1
N              -3.06778000      5.53822000     -4.01182000       7
H               6.62485000     -2.83758000     -2.16596000       1
H               5.14194000      5.12423000     -2.05335000       1
N              -7.11210000     -0.37520800      2.50484000       7
H              -6.35161000      0.79158100      4.08911000       1
H               1.26040000     -6.74174000     -3.33642000       1
N               6.02719000     -3.47943000      3.13808000       7
H              -3.96204000      5.73714000      3.13436000       1
P               1.63809000     -3.96898000     -6.33924000      15
C               6.17373000     -3.75031000     -2.56110000       6
H              -2.52383000      6.06058000      3.98166000       1
H              -2.21075000      5.79777000     -4.53601000       1
P               1.62379000     -4.01963000      6.36711000      15
H              -7.03524000     -1.27898000      3.01115000       1
I              -4.69880000     -6.16513000     -0.35691200      53
I               4.06806000      3.08760000     -5.90978000      53
I               3.52486000     -1.49528000      6.86614000      53
N               5.89025000     -3.54509000     -4.01182000       7
H              -7.26513000      1.70188000      2.84036000       1
H               5.83490000      3.68886000      4.01208000       1
C              -7.22419000      0.78496000      3.43238000       6
I              -5.33050000     -1.44463000     -5.84022000      53
H               1.69291000     -7.38143000      2.84036000       1
C               6.27026000      4.15138000      3.12348000       6
H               6.43421000     -3.02273000      3.98166000       1
H              -7.93017000     -0.44364900      1.86815000       1
H               4.90763000      5.73714000      3.13436000       1
I              -4.80161000      3.08760000     -5.90978000      53
I              -6.53584000     -3.85268000      3.23523000      53
P              -7.14588000     -4.15128000      0.00331709      15
H               1.24661000      1.23129000      8.08555000       1
P               1.53542000      5.06368000      6.36711000      15
P               1.54972000      5.11433000     -6.33924000      15
I               3.61652000      7.45931000     -0.32797400      53
H               5.93712000     -5.37363000      2.21788000       1
H               5.48118000     -4.39625000     -4.45556000       1
I               8.10522000     -2.05670000      0.52174600      53
H               5.39281000      4.68705000     -4.45556000       1
H              -3.74919000      6.30708000     -4.15966000       1
I               4.05375000      3.03694000      6.79658000      53
C               6.08536000      5.33300000     -2.56110000       6
H               6.77208000      4.49011000     -2.45662000       1
H               1.74606000      7.80433000      3.01115000       1
H               6.86045000     -4.59320000     -2.45662000       1
N              -7.72405000      1.33251000     -3.59454000       7
C               6.35863000     -4.93192000      3.12348000       6
N               1.23398000     -7.75080000     -3.59454000       7
H              -7.69763000      2.34157000     -3.33642000       1
P               5.99025000      0.51681000      6.34939000      15
N               5.93882000      5.60388000      3.13808000       7
H               0.74466300      0.71382300     -8.69193000       1
P              -7.23425000      4.93203000      0.00331709      15
P               6.00455000      0.56746400     -6.35696000      15
H               6.74728000     -3.28553000     -4.53601000       1
H               0.27545200     -8.09866000     -3.37009000       1
I              -5.34480000     -1.49528000      6.86614000      53
H               2.12566000     -8.41293000     -1.80630000       1
I              -4.81591000      3.03694000      6.79658000      53
H               0.85112600      8.63966000      1.86815000       1
I              -0.28950200     -6.59673000      5.98984000      53
I               8.56334000      2.44950000      0.46503300      53
H               5.92327000     -5.39445000      4.01208000       1
H               7.35733000      4.04398000      3.13065000       1
N               5.80188000      5.53822000     -4.01182000       7
H              -7.60875000      1.28195000     -4.62081000       1
P              -2.66512000     -8.59290000     -0.01160370      15
H               2.53236000      0.84223500     -8.61725000       1
I              -6.62421000      5.23063000      3.23523000      53
H              -2.13669000     -3.33619000      8.17034000       1
H               6.35563000      6.07543000      2.30775000       1
H              -8.13931000      0.66316900      4.01443000       1
H               5.12048000      6.30708000     -4.15966000       1
I              -5.25315000      7.45931000     -0.32797400      53
C               1.73385000     -8.29835000      3.43238000       6
H               1.34929000     -7.80136000     -4.62081000       1
I              -1.07323000      6.92520000      5.96397000      53
N               1.66920000      8.70810000      2.50484000       7
N               1.13131000      1.28186000      9.11181000       7
C               2.28712000     -8.52285000     -2.88102000       6
H               6.53648000      6.24572000     -2.16596000       1
H               3.26265000     -8.12052000     -3.16358000       1
H               2.51818000      8.78134000      1.91476000       1
H               0.81872900     -8.42014000      4.01443000       1
H              -8.68258000      0.98464900     -3.37009000       1
I              -0.27519900     -6.54607000     -6.71651000      53
H               2.02969000      8.59449000     -3.17375000       1
H               0.17278100      0.93399500      9.33627000       1
I               4.15643000     -5.99571000     -5.90978000      53
I              -7.78116000     -4.21180000     -3.15147000      53
C               1.65978000      0.83561300     -9.27397000       6
I              -9.17599000      2.44950000      0.46503300      53
H               7.44570000     -5.03933000      3.13065000       1
I              -2.12787000     -8.72304000     -3.17440000      53
H              -2.42116000     -2.97207000     -8.72470000       1
H               2.60643000     -8.29173000      4.08911000       1
H               6.34584000      6.06058000      3.98166000       1
I              -4.71324000     -5.99571000     -5.90978000      53
H               9.05675000      0.98464900     -3.37009000       1
H               1.15773000      2.29091000      9.36994000       1
H              -3.67512000     -2.82688000      8.54670000       1
I              -1.05893000      6.97585000     -6.74238000      53
H               1.02786000     -9.52696000      1.86815000       1
I              -3.30277000     -8.61958000      3.19106000      53
H               2.10376000     -0.53946700      9.53261000       1
I              -7.86953000      4.87151000     -3.15147000      53
I              -2.23054000      0.30960900      9.53196000      53
I              -9.63411000     -2.05670000      0.52174600      53
N              -2.99372000     -3.59575000      8.69454000       7
H               6.65891000      5.79777000     -4.53601000       1
H              -3.02046000      3.73951000     -8.69428000       1
H               1.84873000     -1.22832000     -9.69521000       1
H               2.69492000     -9.38528000      1.91476000       1
N               1.84593000     -9.45852000      2.50484000       7
H              -3.40279000     -4.44691000      8.25079000       1
P              -2.84186000      9.57372000     -0.01160370      15
H               9.80916000     -0.44364900      1.86815000       1
I               4.14212000     -6.04636000      6.79658000      53
C               2.18445000      0.50980300      9.82534000       6
H              -3.49116000      4.63640000      8.25079000       1
