200
cutoff_factor=1.20000000 nneightol=1.20000000 Lattice="28.88940000       0.00000000       0.00000000       0.00000000      28.69670000       0.00000000       0.00000000       0.00000000      28.66175000" Properties=species:S:1:pos:R:3:Z:I:1
I               1.42617000      0.81593100      0.12695900      53
H              -2.05502000     -0.41059100     -0.18407800       1
H              -1.54521000      0.47186300     -1.53514000       1
N              -2.23560000     -0.22229100     -1.19137000       7
H              -1.17561000     -1.90031000     -1.90497000       1
I              -1.92147000     -1.03933000      2.38091000      53
P              -0.19105300      1.68165000      2.80249000      15
C              -2.18073000     -1.48374000     -1.98620000       6
H               0.36900900     -2.48174000      2.30844000       1
H              -3.17776000      0.21614600     -1.27401000       1
H               1.26050000     -3.26462000      1.10432000       1
H               1.50440000      3.28612000     -0.72773400       1
H               2.02851000     -2.20928000      2.15192000       1
N               1.28116000     -2.92671000      2.08860000       7
P               3.38794000     -1.00682000     -1.71531000      15
H              -2.91849000     -2.17998000     -1.58112000       1
I               1.30705000     -3.43430000     -1.52169000      53
I              -2.23813000      3.23307000      0.94694200      53
H              -2.41390000     -1.24511000     -3.02512000       1
N               1.72828000      4.16728000     -1.23732000       7
I              -1.50879000      2.79806000     -3.45111000      53
H               1.39399000      3.29243000     -3.12797000       1
I               2.02733000      0.22587500     -4.30705000      53
H               4.20757000      0.74182100      2.28210000       1
I               1.88838000     -0.03777520      4.54344000      53
H               0.89091200      4.76449000     -1.27828000       1
H               3.07931000      3.19053000     -2.52706000       1
C               2.19438000      3.82484000     -2.61134000       6
H               3.87932000      2.38966000      2.37322000       1
I               4.71288000     -2.03927000      1.06393000      53
C               1.59389000     -4.03914000      3.03179000       6
H               2.49478000      4.66529000     -0.73290300       1
N               4.62249000      1.68800000      2.18567000       7
H               4.93961000      1.79074000      1.20301000       1
H              -4.42114000      1.09486000      2.92471000       1
I               1.79735000      4.15755000      2.98496000      53
I              -2.72382000     -4.87121000      0.08531940      53
H               1.61320000     -3.63675000      4.04710000       1
H               0.81751600     -4.80099000      2.93655000       1
I              -5.40944000      1.42859000     -1.56892000      53
H               2.56876000     -4.45313000      2.76518000       1
I               5.52095000      1.42859000     -1.56892000      53
P              -3.76279000      4.24494000     -1.71113000      15
H              -1.28994000     -0.39706000      5.78575000       1
P              -3.97094000     -3.55922000      2.78792000      15
H               1.58267000     -3.50357000     -4.76548000       1
H               2.43930000      4.74997000     -3.13601000       1
I              -1.79794000      2.51720000      5.39237000      53
H              -4.74814000      2.85724000      2.99569000       1
C              -5.17057000      1.86019000      3.13873000       6
P              -0.24170000      1.58781000     -6.13384000      15
I              -1.99869000     -1.09461000     -5.93681000      53
H              -5.99078000      1.79074000      1.20301000       1
P              -0.35766500     -6.15425000     -1.71113000      15
H              -2.33525000     -1.85461000      5.79379000       1
H              -0.83636300      5.94606000      2.76518000       1
C              -1.53486000     -1.32220000      6.31042000       6
I              -6.21752000     -2.03927000      1.06393000      53
H              -0.64992400     -1.95651000      6.39471000       1
C               5.75983000      1.86019000      3.13873000       6
H               2.38622000     -2.39492000     -5.92607000       1
H              -2.58760000      5.59820000      2.93655000       1
N              -6.30790000      1.68800000      2.18567000       7
I              -1.70191000     -4.92116000      4.61471000      53
I               5.33642000     -2.73495000     -3.52939000      53
C               1.96379000     -3.39197000     -5.78303000       6
H               5.37870000      1.74859000      4.15628000       1
I              -1.90765000     -5.28993000     -4.37832000      53
H              -6.72283000      0.74182100      2.28210000       1
H               0.08328480     -2.86250000     -6.54854000       1
H              -5.55169000      1.74859000      4.15628000       1
I              -5.59397000     -2.73495000     -3.52939000      53
H               4.29603000     -5.63470000     -1.27828000       1
H               6.50926000      1.09486000      2.92471000       1
H               1.38213000      4.00705000      5.89664000       1
C              -1.81123000      6.36005000      3.03179000       6
I               1.16699000     -7.16612000      0.94694200      53
I               4.80146000      5.52798000      0.08531940      53
H               5.34244000      1.51028000     -4.87466000       1
I              -2.09807000      6.96489000     -1.52169000      53
H               6.18226000      2.85724000      2.99569000       1
H               4.54675000      0.34604600     -5.98521000       1
H              -2.14462000      7.13457000      1.10432000       1
H              -5.58795000      1.51028000     -4.87466000       1
H              -5.03049000     -5.73390000     -0.73290300       1
N               0.82645400     -3.56416000     -6.73609000       7
H              -4.63240000      0.69390300     -6.15658000       1
H               2.71322000     -4.15729000     -5.99706000       1
P              -7.54246000     -1.00682000     -1.71531000      15
H              -7.05107000      2.38966000      2.37322000       1
H               7.75263000      0.21614600     -1.27401000       1
I              -5.23803000     -2.34897000      5.47065000      53
I               1.80777000      4.10771000     -6.54085000      53
N              -2.00096000     -0.97975100      7.68445000       7
H               0.87754500      3.07217000      7.34065000       1
C               5.32313000      1.10790000     -5.88997000       6
H               0.41153100     -4.51033000     -6.63966000       1
P               3.43837000     -0.90209000      7.21063000      15
N              -2.12396000      7.47248000      2.08860000       7
C               1.61531000      3.76841000      6.93556000       6
H              -1.79192000      6.76244000      4.04710000       1
P              -3.98709000     -3.57051000     -6.11927000      15
H              -2.83832000     -0.38254400      7.64349000       1
N               5.13340000     -6.23191000     -1.23732000       7
P               3.55434000      6.83997000      2.78792000      15
H               2.62043000      3.35185000      7.01679000       1
C              -5.60726000      1.10790000     -5.88997000       6
H              -5.08597000     -5.64922000     -3.13601000       1
H               4.09825000      2.66530000     -6.61332000       1
H              -1.34302000     -7.54195000      2.99569000       1
I               5.69237000     -2.34897000      5.47065000      53
I              -6.12894000      5.52798000      0.08531940      53
H               5.89990000     -5.73390000     -0.73290300       1
H              -1.23446000     -0.48174400      8.18886000       1
P               6.95946000     -3.55922000      2.78792000      15
I               1.79172000     -3.71844000      7.35284000      53
H               8.01190000     -2.17998000     -1.58112000       1
P               7.16761000      4.24494000     -1.71113000      15
I               1.30776000      8.35992000      1.06393000      53
H               1.14357000     -3.46142000     -7.71875000       1
I               1.89633000     -7.60113000     -3.45111000      53
I              -5.31277000      5.10926000     -4.37832000      53
H              -1.82245000      6.89563000     -4.76548000       1
H              -1.37661000      8.18991000      2.15192000       1
N              -5.79699000     -6.23191000     -1.23732000       7
I               1.93130000      7.66424000     -3.52939000      53
I               5.20247000     -6.24164000      2.98496000      53
H               4.90952000     -7.11307000     -0.72773400       1
H              -0.69190100      6.24190000     -5.99706000       1
H              -2.22484000     -1.86091000      8.19403000       1
H               5.84442000     -5.64922000     -3.13601000       1
H              -6.38364000      0.34604600     -5.98521000       1
N               5.01040000      2.22032000     -6.83316000       7
I               5.61762000      5.10926000     -4.37832000      53
N               8.69479000     -0.22229100     -1.19137000       7
H              -3.03611000      7.91745000      2.30844000       1
I              -5.10703000      5.47803000      4.61471000      53
H              -6.63436000     -5.63470000     -1.27828000       1
I              -2.48828000      3.10776000     -7.85783000      53
H               6.29799000      0.69390300     -6.15658000       1
H              -4.44596000     -7.20866000     -2.52706000       1
H              -7.85108000      3.19053000     -2.52706000       1
C              -5.33089000     -6.57435000     -2.61134000       6
H               8.87538000     -0.41059100     -0.18407800       1
I               1.00542000      0.27582400     -8.83644000      53
I              -5.72792000     -6.24164000      2.98496000      53
H              -5.17265000      2.93776000     -6.76984000       1
C               5.59950000     -6.57435000     -2.61134000       6
H              -2.58566000     -8.60845000      1.20301000       1
I               1.07222000      0.38094500      9.00708000      53
C               8.74966000     -1.48374000     -1.98620000       6
H              -3.64595000     -8.00953000      2.37322000       1
H               8.51649000     -1.24511000     -3.02512000       1
H               4.79911000     -7.10676000     -3.12797000       1
P              -3.74642000      4.24533000      7.20645000      15
I               5.10309000      1.81786000      7.40008000      53
C              -1.44133000      7.00722000     -5.78303000       6
I               5.82337000      5.47803000      4.61471000      53
C              -1.76545000     -8.53900000      3.13873000       6
N              -5.91999000      2.22032000     -6.83316000       7
I               8.69227000      3.23307000      0.94694200      53
I              -2.00432000     -8.97060000     -1.56892000      53
H              -6.02087000     -7.11307000     -0.72773400       1
N               1.56044000      5.02987000      7.73039000       7
H               5.75775000      2.93776000     -6.76984000       1
H              -2.99359000      5.88886000     -6.63966000       1
I               9.00893000     -1.03933000      2.38091000      53
H              -8.90188000     -2.20928000      2.15192000       1
H               0.61827500      5.46830000      7.64775000       1
N              -2.90278000     -8.71119000      2.18567000       7
H               4.98974000      1.88241000     -7.81744000       1
P              -0.34129800     -6.15386000      7.20645000      15
H               9.38518000      0.47186300     -1.53514000       1
I              -9.50422000      0.81593100      0.12695900      53
I               8.20658000     -4.87121000      0.08531940      53
P              -0.01718060      9.39237000     -1.71531000      15
H               4.60678000      8.21921000     -1.58112000       1
I               4.89623000     -2.01909000     -7.97482000      53
I              -5.82730000      1.81786000      7.40008000      53
H               2.25082000      5.72402000      7.38662000       1
H              -8.43561000      4.66529000     -0.73290300       1
I               1.60718000     -7.88199000      5.39237000      53
P               3.21407000     -8.71754000      2.80249000      15
H              -1.30126000     -0.58686500     -9.65467000       1
H              -1.01602000     -9.30433000      2.92471000       1
P               3.53818000      6.82868000     -6.11927000      15
H              -2.14657000     -8.65060000      4.15628000       1
H              -4.58073000      8.49889000     -1.90497000       1
H              -8.36164000     -4.45313000      2.76518000       1
H              -6.83215000      2.66530000     -6.61332000       1
C              -8.73601000      3.82484000     -2.61134000       6
I              -8.90307000      0.22587500     -4.30705000      53
H              -6.13128000     -7.10676000     -3.12797000       1
P               6.94330000     -3.57051000     -6.11927000      15
H               4.78725000     -6.39214000      5.89664000       1
N              -2.57867000      6.83503000     -6.73609000       7
H               4.02340000     -4.93089000      7.64775000       1
H              -5.94066000      1.88241000     -7.81744000       1
I               2.28725000      8.05022000      5.47065000      53
H              -9.42599000      3.28612000     -0.72773400       1
