200
cutoff_factor=1.20000000 nneightol=1.20000000 Lattice="28.96683000       0.00000000       0.00000000       0.00000000      28.41431000       0.00000000       0.00000000       0.00000000      28.32068000" Properties=species:S:1:pos:R:3:Z:I:1
H              -0.64725100     -0.92109900     -1.36558000       1
I              -2.21561000      0.81731100      0.05184170      53
N              -0.31592300     -1.85576000     -1.67926000       7
H               0.71985400     -1.88049000     -1.67143000       1
H              -0.52190800     -2.68708000      0.24697800       1
H              -0.57997900      0.80357000      2.58571000       1
I               2.18121000      1.77737000     -0.26167700      53
C              -0.87871800     -2.88877000     -0.76496900       6
H              -0.66615500     -2.01807000     -2.64696000       1
I               1.34658000     -1.87117000      2.50392000      53
P              -0.57551200      3.15123000     -1.27007000      15
H              -1.96858000     -2.82725000     -0.80345400       1
C              -0.26000900      1.46744000      3.39143000       6
H               0.80711100      1.34065000      3.58733000       1
H              -0.48288800      2.50732000      3.14384000       1
H              -0.53965000     -3.87048000     -1.10222000       1
P               3.93011000     -0.45772400      1.28145000      15
I              -0.39967000      1.41258000     -3.98742000      53
I               3.58985000     -2.46730000     -1.21251000      53
N              -1.01372000      1.10482000      4.62829000       7
I              -3.04734000     -2.67033000      2.77855000      53
H              -0.83546400      0.11544700      4.89079000       1
H               2.30525000      1.82365000     -4.08369000       1
P              -4.86975000     -0.45772400      1.28145000      15
H              -2.03740000      1.23101000      4.48720000       1
H               3.89973000      0.16235100     -3.33215000       1
I              -0.39828100      5.00742000      1.32839000      53
H               3.48500000      2.53943000     -3.12343000       1
H              -3.58813000      1.14194000     -4.06797000       1
N               3.31439000      2.06704000     -4.03142000       7
P              -0.46841600     -4.10527000      3.92829000      15
H              -0.70084300      1.69179000      5.42799000       1
H               2.21993000      5.23868000      0.92145400       1
H               3.36678000     -4.70794000      0.26622700       1
H               3.41905000      4.68136000     -0.11949200       1
I              -2.22813000     -2.63857000     -4.74148000      53
I              -5.21001000     -2.46730000     -1.21251000      53
H              -4.90013000      0.16235100     -3.33215000       1
C               4.16392000      0.84352900     -4.14429000       6
I               4.16444000      1.34131000      4.02656000      53
H               3.94045000      4.08127000      2.15957000       1
I              -3.23557000      4.63524000     -2.24437000      53
I               1.19951000      5.28040000     -2.94573000      53
I              -0.38248600     -6.01630000      1.32839000      53
I               2.14017000     -2.09299000     -5.45939000      53
H               2.23572000     -5.78504000      0.92145400       1
C              -4.63594000      0.84352900     -4.14429000       6
N               3.21499000      5.35543000      0.64258200       7
I              -4.63542000      1.34131000      4.02656000      53
H               3.97020000      0.37726300     -5.11280000       1
H              -3.64631000      5.20490000      1.45960000       1
H               3.53305000      2.74050000     -4.79176000       1
N               3.23079000     -5.66829000      0.64258200       7
I               1.21530000     -5.74332000     -2.94573000      53
P              -0.43421800     -0.60095600     -6.53128000      15
I               6.58425000      0.81731100      0.05184170      53
H              -5.31486000      2.53943000     -3.12343000       1
H              -0.80126500      3.61976000     -5.56878000       1
H              -4.85941000      4.08127000      2.15957000       1
H               3.49885000     -0.76381100      5.66780000       1
H               5.21173000      1.14194000     -4.06797000       1
C               4.12105000      5.09645000      1.79904000       6
I              -0.43386900     -2.09174000      6.47215000      53
I              -6.61865000      1.77737000     -0.26167700      53
P               3.88320000     -4.16763000     -3.89508000      15
I               5.75252000     -2.67033000      2.77855000      53
H               2.27106000     -1.68066000      6.37587000       1
H               3.91445000     -5.19817000      2.58099000       1
H              -3.63052000     -5.81882000      1.45960000       1
H              -4.82967000      0.37726300     -5.11280000       1
N              -5.48547000      2.06704000     -4.03142000       7
H              -5.38081000      4.68136000     -0.11949200       1
C              -4.67881000      5.09645000      1.79904000       6
H               3.35098000      6.31579000      0.26622700       1
H              -5.43308000     -4.70794000      0.26622700       1
H               3.43484000     -6.34236000     -0.11949200       1
H              -0.55544600      7.15324000     -1.10222000       1
H              -0.66664400      5.19610000     -5.03158000       1
H               3.93600000     -3.12705000      5.34677000       1
N               3.28020000     -1.43727000      6.42815000       7
H               6.83128000     -2.82725000     -0.80345400       1
C               4.13685000     -5.92727000      1.79904000       6
H               5.15355000      5.20490000      1.45960000       1
H               3.89865000      5.82555000      2.58099000       1
N              -0.97952600      4.60913000     -5.83128000       7
I              -3.21977000     -6.38848000     -2.24437000      53
P              -4.91666000     -4.16763000     -3.89508000      15
I               5.56429000      4.63524000     -2.24437000      53
H              -4.88541000     -5.19817000      2.58099000       1
H              -5.26682000      2.74050000     -4.79176000       1
I               2.09017000      5.42642000      5.00017000      53
H              -3.62233000     -2.36238000      6.39160000       1
H              -0.65084800     -5.82762000     -5.03158000       1
C              -4.66302000     -5.92727000      1.79904000       6
N              -5.58487000      5.35543000      0.64258200       7
I               2.10597000     -5.59730000      5.00017000      53
H              -5.30101000     -0.76381100      5.66780000       1
I               1.16531000      1.77608000      7.51384000      53
I              -2.27813000      4.88084000      5.71809000      53
H              -4.86387000     -3.12705000      5.34677000       1
H              -2.00320000      4.73533000     -5.97236000       1
H              -6.49461000      1.82365000     -4.08369000       1
H               5.16934000     -5.81882000      1.45960000       1
P              -0.48421200      6.91845000      3.92829000      15
N              -5.56908000     -5.66829000      0.64258200       7
P              -0.55971700     -7.87249000     -1.27007000      15
C               4.12972000     -2.66079000      6.31528000       6
H              -4.90121000      5.82555000      2.58099000       1
I              -7.45328000     -1.87117000      2.50392000      53
H               3.45080000     -0.96488200      7.33614000       1
H               6.76246000      1.23101000      4.48720000       1
C              -0.89451400      8.13495000     -0.76496900       6
I               1.38078000      1.63315000     -7.95565000      53
H               3.95624000     -6.94245000      2.15957000       1
I              -3.01314000      0.83398600     -7.68101000      53
C              -4.67014000     -2.66079000      6.31528000       6
P               3.83321000      3.35177000      6.56449000      15
H              -5.36502000     -6.34236000     -0.11949200       1
H               8.15261000     -0.92109900     -1.36558000       1
H              -5.44888000      6.31579000      0.26622700       1
H              -0.53770400      8.33664000      0.24697800       1
H               0.84131000      4.84496000     -6.87224000       1
H              -6.57994000      5.23868000      0.92145400       1
H              -8.08001000     -1.88049000     -1.67143000       1
C               7.92114000     -2.88877000     -0.76496900       6
H              -1.98438000      8.19647000     -0.80345400       1
I               6.57173000     -2.63857000     -4.74148000      53
H               5.17754000     -2.36238000      6.39160000       1
N              -5.51967000     -1.43727000      6.42815000       7
C              -0.22581000      4.97175000     -7.06814000       6
H               8.21988000      0.80357000      2.58571000       1
I              -2.26233000     -6.14288000      5.71809000      53
H               8.27795000     -2.68708000      0.24697800       1
N              -0.96373000     -6.41459000     -5.83128000       7
H              -4.84362000     -6.94245000      2.15957000       1
H               3.86553000     -3.34197000      7.12741000       1
I               5.58009000     -6.38848000     -2.24437000      53
P               3.86741000      6.85609000     -3.89508000      15
H               8.13371000     -2.01807000     -2.64696000       1
H              -6.56414000     -5.78504000      0.92145400       1
N               8.48394000     -1.85576000     -1.67926000       7
I              -6.65969000     -2.09299000     -5.45939000      53
H              -7.99275000      1.34065000      3.58733000       1
H              -0.43289400     -5.01208000     -7.31573000       1
P              -4.96666000      3.35177000      6.56449000      15
H              -1.98740000     -6.28840000     -5.97236000       1
P               8.22435000      3.15123000     -1.27007000      15
I              -3.26977000      1.13093000      8.21520000      53
H               3.94865000     -1.69386000     -7.87858000       1
H              -0.54578000      4.30789000     -7.87386000       1
I               4.19864000      4.84563000     -6.43301000      53
H              -0.46709200     -8.51640000      3.14384000       1
N               7.78614000      1.10482000      4.62829000       7
H              -5.34906000     -0.96488200      7.33614000       1
H               8.26021000     -3.87048000     -1.10222000       1
P              -0.60971100     -0.35309000      9.18950000      15
H               8.31697000      2.50732000      3.14384000       1
I              -4.60122000      4.84563000     -6.43301000      53
H              -6.52881000     -1.68066000      6.37587000       1
H               0.85710500     -6.17876000     -6.87224000       1
H              -4.93433000     -3.34197000      7.12741000       1
H              -0.78547000     -7.40396000     -5.56878000       1
P              -4.93246000      6.85609000     -3.89508000      15
C               8.53985000      1.46744000      3.39143000       6
C              -0.21001500     -6.05197000     -7.06814000       6
I              -3.06313000      8.35339000      2.77855000      53
H               0.70405900      9.14323000     -1.67143000       1
N              -0.33171900      9.16796000     -1.67926000       7
H               7.96440000      0.11544700      4.89079000       1
I               3.57405000      8.55642000     -1.21251000      53
I               8.40019000      1.41258000     -3.98742000      53
H              -4.85122000     -1.69386000     -7.87858000       1
H              -0.68195000      9.00565000     -2.64696000       1
N              -9.11579000     -1.85576000     -1.67926000       7
I              -0.34828700     -2.51198000     -9.13118000      53
H              -0.44868900      6.01164000     -7.31573000       1
I               2.19701000     -9.24635000     -0.26167700      53
I               1.33078000      9.15255000      2.50392000      53
H              -0.71614900      5.50134000      7.81261000       1
H              -9.44711000     -0.92109900     -1.36558000       1
H              -0.70035400     -5.52238000      7.81261000       1
I               5.78672000      0.83398600     -7.68101000      53
H               3.50080000     -8.48429000     -3.12343000       1
H              -9.32177000     -2.68708000      0.24697800       1
I              -7.60035000      5.28040000     -2.94573000      53
H              -9.37984000      0.80357000      2.58571000       1
C              -9.05987000      1.46744000      3.39143000       6
H               3.99044000     -3.43814000     -8.29999000       1
H               9.51972000     -1.88049000     -1.67143000       1
I               4.21443000     -6.17809000     -6.43301000      53
I               8.40158000      5.00742000      1.32839000      53
I              -2.24393000      8.38516000     -4.74148000      53
H               8.09902000      1.69179000      5.42799000       1
C               4.17105000     -2.42296000     -8.66053000       6
I               6.52174000      4.88084000      5.71809000      53
I              -7.58456000     -5.74332000     -2.94573000      53
H              -3.59632000     -2.31450000     -8.99996000       1
I               5.53009000      1.13093000      8.21520000      53
P              -9.37537000      3.15123000     -1.27007000      15
I              -6.70969000      5.42642000      5.00017000      53
