200
cutoff_factor=1.20000000 nneightol=1.20000000 Lattice="29.31335000       0.00000000       0.00000000       0.00000000      28.56223000       0.00000000       0.00000000       0.00000000      28.57445000" Properties=species:S:1:pos:R:3:Z:I:1
H               0.82153100      1.40364000     -0.56394400       1
I              -1.77923000     -0.55789600     -0.82321500      53
C               0.44731200      2.42840000     -0.62001300       6
H              -0.64324100      2.43457000     -0.68241900       1
P               0.44487700     -2.66633000     -0.01446310      15
I               1.49609000     -0.94308900      2.46106000      53
H               0.44362100      2.66362000      1.45193000       1
N               0.85176200      3.14524000      0.62276100       7
I               2.71241000     -1.13750000     -1.70416000      53
H               0.88267700      2.94709000     -1.47705000       1
H               0.11562800     -0.55315900     -3.60406000       1
H               1.89551000      3.12643000      0.69812600       1
H              -3.52933000     -0.88909000      1.09017000       1
H              -2.35434000     -0.71205800      3.18370000       1
H               0.49858000      4.11995000      0.63521100       1
I              -1.24106000      2.35120000      3.43779000      53
C               0.52403000     -0.15568500     -4.53600000       6
N              -3.91394000     -1.37527000      1.92824000       7
H               3.96578000     -1.34515000      1.87951000       1
H              -3.57077000     -2.35289000      1.88178000       1
C              -3.44632000     -0.68653800      3.16585000       6
H               1.61357000     -0.09973750     -4.48335000       1
H               0.10059700      0.82828700     -4.74943000       1
P              -3.99691000      1.01065000     -2.54067000      15
H              -3.80447000      0.34521600      3.14212000       1
I              -1.64236000     -4.33040000      1.92028000      53
I              -0.26708100     -4.29243000     -2.67192000      53
I               4.36462000      2.68660000      0.17982500      53
I              -1.84754000      3.21168000     -3.63594000      53
P               0.90871000      0.67574700      5.13075000      15
I              -4.55968000      2.68660000      0.17982500      53
H              -4.95851000     -1.34515000      1.87951000       1
N               5.01035000     -1.37527000      1.92824000       7
H               5.39496000     -0.88909000      1.09017000       1
H              -3.79519000     -3.24342000     -2.58636000       1
P               4.92738000      1.01065000     -2.54067000      15
H              -3.85526000     -1.21251000      4.03147000       1
I               2.78157000      2.84369000     -4.11548000      53
N               0.15445900     -1.08110000     -5.64429000       7
I               2.65707000     -5.05733000      0.74331700      53
H               0.55048100     -2.02552000     -5.46097000       1
H              -0.88764500     -1.15665000     -5.69125000       1
H               2.97242000     -4.10914000     -3.19386000       1
H               5.11983000      0.34521600      3.14212000       1
H               3.39159000     -4.70153000     -1.68467000       1
I               3.15122000      2.90961000      4.35960000      53
H               5.35352000     -2.35289000      1.88178000       1
I              -3.38189000     -0.81182900     -5.13526000      53
H              -0.69383500      5.43215000     -3.04682000       1
P              -3.55682000      4.45074000      2.66165000      15
I              -1.49105000      6.07197000      0.74331700      53
C               5.47797000     -0.68653800      3.16585000       6
H              -3.20490000     -4.93256000     -2.44249000       1
C              -3.89573000     -4.26463000     -2.96116000       6
I              -6.21188000     -1.13750000     -1.70416000      53
I              -1.16814000     -1.42097000      6.28192000      53
N               3.63735000     -4.73259000     -2.69600000       7
H               5.06903000     -1.21251000      4.03147000       1
H               5.12910000     -3.24342000     -2.58636000       1
H               0.55228100     -0.76005600     -6.54828000       1
H              -0.75652900      6.42776000     -1.68467000       1
H               1.57128000      6.19673000     -2.44249000       1
N              -0.51077100      6.39670000     -2.69600000       7
H              -3.71958000     -4.29399000     -4.03878000       1
H               1.37694000      4.83911000      4.93644000       1
H               0.09445280      3.05215000     -6.36594000       1
H              -3.39743000     -5.02471000      3.84912000       1
P               0.59130300     -6.67855000      2.66165000      15
I               7.14506000     -0.55789600     -0.82321500      53
C               5.02857000     -4.26463000     -2.96116000       6
H               3.45428000     -5.69714000     -3.04682000       1
H               6.56995000     -0.71205800      3.18370000       1
H               1.37874000      6.10458000      3.84912000       1
H              -0.06118230      5.70799000      4.70616000       1
H              -2.89312000      2.57065000      6.35862000       1
H              -5.53270000     -4.70153000     -1.68467000       1
P               5.36748000      4.45074000      2.66165000      15
I               1.59269000     -5.07648000      5.26215000      53
I               3.12704000     -1.05298000      6.76147000      53
C               0.88044800      6.86467000     -2.96116000       6
N               0.98092100      5.78354000      4.75312000       7
I               2.32476000     -3.95502000     -6.03781000      53
N              -5.28694000     -4.73259000     -2.69600000       7
I               5.54240000     -0.81182900     -5.13526000      53
H              -3.84911000     -3.43637000      5.64798000       1
H              -2.33614000     -4.36439000      5.91406000       1
H              -7.02878000      3.12643000      0.69812600       1
I               3.13381000      6.79889000      1.92028000      53
I              -5.77307000      2.90961000      4.35960000      53
H              -1.17570000      7.02015000     -3.19386000       1
H               5.20471000     -4.29399000     -4.03878000       1
I              -7.42820000     -0.94308900      2.46106000      53
H              -5.95187000     -4.10914000     -3.19386000       1
I              -6.14273000      2.84369000     -4.11548000      53
H               5.71940000     -4.93256000     -2.44249000       1
H               1.05659000      6.83531000     -4.03878000       1
C               0.50338800      3.57812000     -7.23156000       6
I              -6.26723000     -5.05733000      0.74331700      53
N              -3.79525000     -5.34575000      4.75312000       7
C              -3.42568000     -4.42034000      5.86141000       6
P               0.08224770     -6.18889000     -5.26665000      15
I               0.55938100      2.57220000      7.72549000      53
H               1.59537000      3.55260000     -7.21371000       1
H              -4.27759000     -7.00934000      0.63521100       1
H              -8.10276000      1.40364000     -0.56394400       1
H               4.08694000     -5.42130000      4.70616000       1
P              -4.06587000      4.94040000     -5.26665000      15
H               5.07518000     -3.43637000      5.64798000       1
H               0.98098500      7.88588000     -2.58636000       1
H               5.52686000     -5.02471000      3.84912000       1
I              -2.55543000      6.05281000      5.26215000      53
H               4.64670000     -7.00934000      0.63521100       1
C              -3.06926000      2.60001000      7.43625000       6
I              -0.41155700     -8.44269000      0.17982500      53
H              -5.47001000     -5.69714000     -3.04682000       1
H              -2.37843000      1.93208000      7.95492000       1
H              -2.88066000     -8.00286000      0.69812600       1
I              -2.06753000     -4.51344000     -6.95962000      53
P               0.97766700     -3.25400000      7.85673000      15
I              -4.41520000      6.83686000     -2.67192000      53
H              -7.31072000     -0.09973750     -4.48335000       1
I               7.07675000      3.21168000     -3.63594000      53
H               4.28075000      1.16750000      7.35059000       1
H               0.14524400      4.60987000     -7.25529000       1
H               3.79888000      2.75549000      7.20355000       1
I               4.50909000      6.83686000     -2.67192000      53
H              -4.83736000     -5.42130000      4.70616000       1
H               8.28105000      2.43457000     -0.68241900       1
N              -8.07253000      3.14524000      0.62276100       7
I               7.28193000     -4.33040000      1.92028000      53
H              -3.39923000     -6.29018000      4.93644000       1
H              -8.04161000      2.94709000     -1.47705000       1
P               4.85842000      4.94040000     -5.26665000      15
H               0.37894000      1.91176000     -8.51563000       1
I               7.68323000      2.35120000      3.43779000      53
H              -4.64355000      1.16750000      7.35059000       1
I               2.30735000     -0.06574680     -8.47712000      53
N               5.12904000     -5.34575000      4.75312000       7
C              -8.47698000      2.42840000     -0.62001300       6
P              -8.47941000     -2.66633000     -0.01446310      15
N              -3.92441000     -7.98405000      0.62276100       7
N               0.03576630      2.88938000     -8.46917000       7
I              -5.79725000     -1.05298000      6.76147000      53
H              -8.48067000      2.66362000      1.45193000       1
C               1.35049000      6.70895000      5.86141000       6
I               2.30058000     -7.91761000     -3.63594000      53
H               1.20540000      8.77640000      1.88178000       1
H              -1.00880000      2.91950000     -8.51790000       1
H              -2.96872000      3.62122000      7.81105000       1
H               6.03118000      2.57065000      6.35862000       1
I              -5.79048000      6.79889000      1.92028000      53
N              -4.46048000      2.13205000      7.70141000       7
N               4.46381000      2.13205000      7.70141000       7
H              -3.83408000     -4.81781000      6.79334000       1
C               5.49861000     -4.42034000      5.86141000       6
H              -3.89350000     -8.18220000     -1.47705000       1
P              -4.38328000     -2.41390000     -7.73576000      15
P              -3.70324000      8.46296000     -0.01446310      15
H              -5.12541000      2.75549000      7.20355000       1
I              -3.47849000      3.32156000     -7.93635000      53
P               4.54101000     -2.41390000     -7.73576000      15
H               2.44003000      6.76490000      5.91406000       1
H               0.94209000      6.31148000      6.79334000       1
H               3.50488000     -8.69472000     -0.68241900       1
H              -8.42571000      4.11995000      0.63521100       1
N               4.99988000     -7.98405000      0.62276100       7
I              -1.62495000     -8.21968000      4.35960000      53
I              -1.99461000     -8.28560000     -4.11548000      53
H              -3.06703000     -1.31756000      8.92036000       1
H              -8.80866000     -0.55315900     -3.60406000       1
P              -8.01558000      0.67574700      5.13075000      15
C              -8.40026000     -0.15568500     -4.53600000       6
I              -1.82336000      7.17427000     -6.03781000      53
H               0.92705900      7.69292000      5.64798000       1
H              -4.33255000     -8.46567000      1.45193000       1
I               7.43324000      6.07197000      0.74331700      53
C               9.37160000      2.42840000     -0.62001300       6
H               5.03080000     -8.18220000     -1.47705000       1
H               5.52506000     -6.29018000      4.93644000       1
C              -4.32886000     -8.70089000     -0.62001300       6
H               4.59174000     -8.46567000      1.45193000       1
P               9.36917000     -2.66633000     -0.01446310      15
H               9.03992000     -0.55315900     -3.60406000       1
H               5.09021000     -4.81781000      6.79334000       1
I              -6.59953000     -3.95502000     -6.03781000      53
C               5.85503000      2.60001000      7.43625000       6
H               9.36791000      2.66362000      1.45193000       1
C               4.59543000     -8.70089000     -0.62001300       6
H               9.74582000      1.40364000     -0.56394400       1
I               2.90705000     -8.77809000      3.43779000      53
H               6.58815000     -4.36439000      5.91406000       1
H              -0.38284200     -4.20101000     -8.94548000       1
H              -9.56753000      2.43457000     -0.68241900       1
H               0.42038200      3.37556000     -9.30723000       1
H               8.03665000     -1.15665000     -5.69125000       1
H               4.21805000      2.16311000      8.71274000       1
H              -7.35301000      6.19673000     -2.44249000       1
P               5.22105000      8.46296000     -0.01446310      15
I              -2.31752000     -0.79267100     -9.65409000      53
H              -0.18233500      9.78414000      1.87951000       1
