200
cutoff_factor=1.20000000 nneightol=1.20000000 Lattice="28.98559000       0.00000000       0.00000000       0.00000000      28.36898000       0.00000000       0.00000000       0.00000000      29.14143000" Properties=species:S:1:pos:R:3:Z:I:1
P               0.04917960      0.03542520      0.03421670      15
I              -0.57721200     -0.16266800     -3.12000000      53
I              -2.64850000     -1.74220000      0.57941800      53
I               1.82234000     -2.67489000      0.07196830      53
I               0.61963400      0.22160400      3.17668000      53
I              -1.69513000      2.76732000      0.02922810      53
I               2.74910000      1.76257000     -0.50934600      53
H              -0.13348800     -3.16658000     -2.44180000       1
H              -3.11463000     -0.20114500     -2.78607000       1
H               0.41506200     -3.61758000      2.06826000       1
H               3.15788000      0.17858600      2.78369000       1
H              -0.72206200      3.45709000     -2.32950000       1
H              -4.31044000     -0.07487490      1.89739000       1
H              -0.81538900      4.18013000      2.04636000       1
H               1.16931000      3.34184000      3.15627000       1
H               4.39820000     -0.01438060     -1.82067000       1
H               2.97191000      0.09973830     -3.75728000       1
H              -0.87578200     -3.52265000      3.16381000       1
H              -4.49617000     -0.01438060     -1.82067000       1
H              -2.99254000     -0.11479800      3.91325000       1
N              -0.22304600     -4.16826000      2.68025000       7
H               4.58393000     -0.07487490      1.89739000       1
N              -4.14189000     -0.36833600     -2.73163000       7
C               0.28075200     -3.85142000     -3.18471000       6
N               4.18897000      0.32763700      2.77175000       7
H              -0.26436600      3.25264000     -3.95171000       1
N              -0.65045200      3.92154000     -3.25791000       7
H               1.28230000     -4.17393000     -2.89104000       1
H              -0.76385200     -4.79299000      2.04636000       1
H              -4.27205000     -1.40041000     -2.77937000       1
H               4.33895000      1.35857000      2.77882000       1
H               0.30425800     -3.37968000     -4.16957000       1
N              -4.70540000      0.32763700      2.77175000       7
C               0.49159500      4.01339000      3.68763000       6
N               4.75248000     -0.36833600     -2.73163000       7
H              -0.21754600      3.44184000      4.29065000       1
H              -4.55542000      1.35857000      2.77882000       1
N              -0.27458300      4.80486000      2.68025000       7
H               4.62233000     -1.40041000     -2.77937000       1
C               4.03915000      0.31493200     -3.84622000       6
C              -4.06679000     -0.30827200      3.95497000       6
H              -1.61669000      4.18665000     -3.53491000       1
H               1.23076000      4.79918000     -2.89104000       1
H               0.36352500      5.35554000      2.06826000       1
H               4.21892000      1.38933000     -3.76464000       1
H              -4.26232000     -1.38232000      3.91731000       1
H              -0.67052500     -5.51603000     -2.32950000       1
C               0.22921500      5.12170000     -3.18471000       6
N              -0.59891500     -5.05158000     -3.25791000       7
H              -1.56516000     -4.78647000     -3.53491000       1
H              -4.67546000      1.38933000     -3.76464000       1
H               1.10676000     -4.26675000      4.31637000       1
C              -4.85523000      0.31493200     -3.84622000       6
C               0.54313200     -4.95973000      3.68763000       6
H               4.63205000     -1.38232000      3.91731000       1
C               4.82758000     -0.30827200      3.95497000       6
P              -4.42399000     -4.47987000      0.02551930      15
H              -0.18502400      5.80653000     -2.44180000       1
P               4.41884000      4.49324000      0.02551930      15
P               4.47038000     -4.47987000      0.02551930      15
P              -4.47553000      4.49324000      0.02551930      15
P               0.26850200     -0.23555300      6.34808000      15
H              -0.92731900      5.45046000      3.16381000       1
P              -0.24287700      0.12241200     -6.37097000      15
H              -5.73649000      0.17858600      2.78369000       1
I              -6.14527000      1.76257000     -0.50934600      53
H               5.77974000     -0.20114500     -2.78607000       1
I              -1.64359000     -6.20579000      0.02922810      53
H               1.05522000      4.70636000      4.31637000       1
I              -4.09840000     -3.95076000     -3.13930000      53
I               6.24587000     -1.74220000      0.57941800      53
H               4.42884000     -0.06728550     -4.79230000       1
I               1.77081000      6.29823000      0.07196830      53
H              -4.46553000     -0.06728550     -4.79230000       1
H               4.39504000      0.12802400      4.85812000       1
H               1.22085000     -5.63128000      3.15627000       1
I              -1.73635000     -2.64822000      5.77091000      53
I               1.73732000      2.61848000     -5.80381000      53
I               4.27946000      3.90666000      3.16977000      53
H              -4.49933000      0.12802400      4.85812000       1
I              -4.61491000      3.90666000      3.16977000      53
I               2.20462000     -1.88833000     -6.28440000      53
H              -0.21282900     -5.72048000     -3.95171000       1
I               4.79597000     -3.95076000     -3.13930000      53
H               0.25272100      5.59344000     -4.16957000       1
H              -0.16600900     -5.53128000      4.29065000       1
H              -5.92246000      0.09973830     -3.75728000       1
I              -2.16193000      1.83862000      6.42627000      53
H               5.90183000     -0.11479800      3.91325000       1
I              -2.67331000      2.19658000     -6.29278000      53
I              -4.14994000      5.02236000     -3.13930000      53
I               2.71600000     -2.24630000      6.43465000      53
I               4.33100000     -5.06646000      3.16977000      53
I              -4.56337000     -5.06646000      3.16977000      53
I              -7.07203000     -2.67489000      0.07196830      53
I               4.74443000      5.02236000     -3.13930000      53
I               2.24870000      2.26051000      6.91525000      53
I              -2.24773000     -2.29025000     -6.94815000      53
I               7.19925000      2.76732000      0.02922810      53
I              -2.70004000      7.23091000      0.57941800      53
I               2.80063000     -7.21054000     -0.50934600      53
P              -4.20046000      4.28671000      6.35518000      15
I              -1.78788000      6.32490000      5.77091000      53
H               3.88366000      0.48598800     -7.86094000       1
P               4.23407000     -4.32844000     -6.36388000      15
I               1.78886000     -6.35464000     -5.80381000      53
P              -8.84519000      0.03542520      0.03421670      15
I              -8.27474000      0.22160400      3.17668000      53
H              -3.95415000     -0.42525000      7.92675000       1
I               8.31716000     -0.16266800     -3.12000000      53
P              -4.14892000     -4.68641000      6.35518000      15
P               4.18254000      4.64467000     -6.36388000      15
P               0.10071600     -8.93769000      0.03421670      15
P               8.94355000      0.03542520      0.03421670      15
P               4.69392000      4.28671000      6.35518000      15
H              -7.72506000      3.34184000      3.15627000       1
P              -4.66030000     -4.32844000     -6.36388000      15
P              -0.00235715      9.00854000      0.03421670      15
H               7.27768000      4.18665000     -3.53491000       1
I               6.22106000      2.19658000     -6.29278000      53
H              -7.61207000     -4.17393000     -2.89104000       1
H              -4.32358000      7.57270000     -2.77937000       1
H               8.17231000      3.45709000     -2.32950000       1
P              -4.71183000      4.64467000     -6.36388000      15
I              -6.17837000     -2.24630000      6.43465000      53
P               4.74545000     -4.68641000      6.35518000      15
H               4.39049000     -7.61455000      2.77882000       1
H               0.24701300      2.89468000      8.76735000       1
H               4.57079000      7.57270000     -2.77937000       1
H              -4.50388000     -7.61455000      2.77882000       1
H              -0.72892500      3.79980000     -8.42841000       1
H               0.59537700     -3.90879000     -8.40269000       1
H               8.01859000     -3.52265000      3.16381000       1
H               8.07898000      4.18013000      2.04636000       1
I               0.67117100     -8.75151000      3.17668000      53
H              -5.01071000      0.48598800     -7.86094000       1
H               4.94022000     -0.42525000      7.92675000       1
H               0.81563800     -3.73765000      8.54949000       1
I              -0.62874800      8.81045000     -3.12000000      53
I              -6.68975000     -1.88833000     -6.28440000      53
H               7.32921000     -4.78647000     -3.53491000       1
H              -8.47931000     -3.61758000      2.06826000       1
I              -6.09374000     -7.21054000     -0.50934600      53
H              -3.50392000      0.24316700     -8.80581000       1
H               4.27045000     -7.58379000     -3.76464000       1
I               6.73244000      1.83862000      6.42627000      53
H              -7.66361000      4.79918000     -2.89104000       1
I              -7.12357000      6.29823000      0.07196830      53
I               6.19433000      7.23091000      0.57941800      53
I               7.25078000     -6.20579000      0.02922810      53
I               0.10825500      0.57956900     -9.54237000      53
I               7.15802000     -2.64822000      5.77091000      53
H              -4.31386000      7.59080000      3.91731000       1
I              -7.15705000      2.61848000     -5.80381000      53
I              -2.62177000     -6.77653000     -6.29278000      53
I              -0.06583230     -0.52063300      9.59906000      53
H               3.48329000     -0.25822600      8.96178000       1
H               8.76088000     -3.16658000     -2.44180000       1
H              -4.62392000     -7.58379000     -3.76464000       1
H               8.13052000     -4.79299000      2.04636000       1
I              -0.52567500     -9.13579000     -3.12000000      53
I               2.66447000      6.72682000      6.43465000      53
H               4.58052000      7.59080000      3.91731000       1
N               8.24392000      3.92154000     -3.25791000       7
I               2.15309000      7.08478000     -6.28440000      53
H              -3.16617000      8.77197000     -2.78607000       1
I               0.56809700      9.19472000      3.17668000      53
H               3.20942000     -8.79453000      2.78369000       1
C               4.31620000      0.04969270     -8.76409000       6
H               4.12067000     -1.02436000     -8.80175000       1
H               0.54384000      5.06433000     -8.40269000       1
I              -2.11040000     -7.13450000      6.42627000      53
I              -6.64567000      2.26051000      6.91525000      53
H              -7.78762000     -4.26675000      4.31637000       1
H              -9.02786000     -3.16658000     -2.44180000       1
C              -4.34385000     -0.04303200      8.87284000       6
I               6.64664000     -2.29025000     -6.94815000      53
C              -4.57817000      0.04969270     -8.76409000       6
I               2.30024000     -6.71261000      6.91525000      53
I              -2.29926000      6.68286000     -6.94815000      53
H              -0.67738900     -5.17332000     -8.42841000       1
H              -4.16408000      1.03136000      8.95442000       1
N              -4.19342000      8.60478000     -2.73163000       7
C              -8.61362000     -3.85142000     -3.18471000       6
C               4.55053000     -0.04303200      8.87284000       6
I              -9.47158000     -0.16266800     -3.12000000      53
N               8.67133000     -4.16826000      2.68025000       7
H              -1.10531000      3.82868000      9.18415000       1
C              -8.40278000      4.01339000      3.68763000       6
N               4.24051000     -8.64548000      2.77175000       7
H              -7.67352000     -5.63128000      3.15627000       1
I               9.51401000      0.22160400      3.17668000      53
H               8.63001000      3.25264000     -3.95171000       1
C              -0.01978390      4.37135000     -9.03143000       6
H               0.76410100      5.23547000      8.54949000       1
H               3.10635000      9.15170000      2.78369000       1
H              -4.77370000     -1.02436000     -8.80175000       1
H              -3.06309000     -9.17426000     -2.78607000       1
H              -4.36198000      8.89824000      1.89739000       1
H               3.02344000     -8.87338000     -3.75728000       1
