200
cutoff_factor=1.20000000 nneightol=1.20000000 Lattice="28.84860000       0.00000000       0.00000000       0.00000000      29.05737000       0.00000000       0.00000000       0.00000000      28.95902000" Properties=species:S:1:pos:R:3:Z:I:1
H               0.52774600     -0.84708700     -0.68998800       1
C               1.25865000     -1.36309000     -0.06323900       6
H               1.80940000     -0.64923900      0.55241800       1
H               0.76792800     -2.10793000      0.56626300       1
I              -2.35724000      1.09924000     -1.07216000      53
I               1.23482000      2.06401000      1.67544000      53
N               2.23259000     -2.06636000     -0.94748900       7
H              -1.25620000      0.34686600      2.90794000       1
H               2.75687000     -1.41176000     -1.56392000       1
H               1.77681000     -2.78304000     -1.55127000       1
P              -0.41393200      3.58926000     -0.56892400      15
I              -1.97637000     -2.61289000      1.64204000      53
H               2.94783000     -2.57772000     -0.39285500       1
C              -2.10987000      0.87520200      3.33858000       6
H              -2.09076000      1.92860000      3.05231000       1
I               1.61859000      2.70845000     -2.86448000      53
H              -3.04536000      0.40855600      3.02372000       1
P              -4.02992000     -1.60706000     -0.49017500      15
H              -2.70551000      1.01027000     -3.58234000       1
I               1.87999000     -1.86950000      3.96979000      53
I              -2.55695000     -3.14377000     -2.91384000      53
P               3.27888000      1.01378000      3.97675000      15
N              -2.01707000      0.78834400      4.82468000       7
I               1.09331000     -1.33173000     -5.11328000      53
H              -4.60913000      2.73436000     -0.72116000       1
H               4.10772000      3.29223000     -1.25241000       1
H              -1.12410000      1.20662000      5.16697000       1
H              -1.72779000     -0.55428100     -5.16423000       1
H              -2.02981000     -0.20934200      5.13472000       1
I              -2.48296000      4.63839000      1.70859000      53
I               5.30140000      0.06232970      1.64220000      53
N              -3.16910000      0.82273700     -4.49665000       7
I               4.89800000     -0.55988200     -2.83895000      53
P              -0.43645000     -4.15050000      3.96168000      15
H              -3.89782000      0.10946100     -4.31332000       1
C              -2.19829000      0.36146800     -5.52646000       6
I              -5.74042000      0.06232970      1.64220000      53
H              -1.45208000      1.14420000     -5.68056000       1
H               5.45146000      2.38540000      0.57584800       1
H              -4.62030000      3.75250000      0.59386300       1
H               4.09385000      4.37825000      0.17677600       1
I               1.65781000     -5.08969000     -2.76014000      53
H               0.90566100      5.35985000      2.62864000       1
H              -5.59036000      2.38540000      0.57584800       1
H              -2.80770000      1.26918000      5.27849000       1
N              -5.23072000      3.16635000     -0.01611110       7
P               3.17988000      1.05715000     -5.11602000      15
I               1.28965000     -5.76454000      1.70859000      53
H              -2.12531000     -5.64607000     -1.22908000       1
C               4.70397000      3.95937000     -0.62684200       6
H              -3.67636000      1.68651000     -4.79183000       1
I              -2.11480000      5.31324000     -2.76014000      53
H               1.92509000      4.64100000      3.91348000       1
I               1.31338000      6.28081000     -0.14458000      53
I               5.08600000     -4.12212000     -0.14458000      53
H               1.58652000      4.99830000     -3.94298000       1
I               1.09592000      2.05151000      6.16386000      53
P              -0.37398700     -4.18150000     -5.10096000      15
N               5.81110000      3.16635000     -0.01611110       7
H               3.74912000     -3.52114000      4.28587000       1
H              -0.84768000     -6.65043000      0.59386300       1
C               1.45458000      5.55675000      3.55124000       6
I              -6.14381000     -0.55988200     -2.83895000      53
H              -3.17535000     -6.02468000      0.17677600       1
C              -2.56523000     -6.44356000     -0.62684200       6
I              -1.99773000     -2.49920000      6.21323000      53
H              -2.74721000      0.16457000     -6.44906000       1
H               6.43269000      2.73436000     -0.72116000       1
H               5.14388000      4.75686000     -1.22908000       1
H               4.58124000     -3.92611000     -3.79922000       1
H              -0.24494500      5.30474000      4.76438000       1
P               7.01190000     -1.60706000     -0.49017500      15
I              -5.95582000     -4.12212000     -0.14458000      53
I               4.74618000      3.86355000      3.96442000      53
H              -5.06841000     -4.06344000      3.39714000       1
H              -4.77697000     -3.98866000     -3.91073000       1
H               4.67828000     -5.04307000      2.62864000       1
N              -1.45810000     -7.23657000     -0.01611110       7
H               6.42152000      3.75250000      0.59386300       1
C              -6.33784000      3.95937000     -0.62684200       6
H               2.20079000      6.33948000      3.39714000       1
N               1.59925000      5.99599000     -4.25302000       7
H               0.80862500      6.47682000     -3.79922000       1
N               0.48377400      6.01802000      4.58105000       7
P               3.35868000     -6.81366000     -0.56892400      15
N               4.25639000     -4.38491000      4.58105000       7
H              -5.89793000      4.75686000     -1.22908000       1
H              -0.83651000     -7.66857000     -0.72116000       1
H              -6.93410000      3.29223000     -1.25241000       1
H               3.52767000     -5.09818000      4.76438000       1
H              -0.82478200      7.82521000     -0.39285500       1
H              -3.16148000     -7.11069000     -1.25241000       1
H               2.49222000      6.41426000     -3.91073000       1
C               5.22719000     -4.84617000      3.55124000       6
H               5.97340000     -4.06344000      3.39714000       1
H               1.52756000     -0.45078500      7.84862000       1
H              -1.99580000      7.61988000     -1.55127000       1
I               1.63995000      2.59475000     -7.43566000      53
I              -2.52301000     -6.53937000      3.96442000      53
H               0.49138900     -1.91541000      7.82529000       1
H              -0.02349320      6.88179000      4.28587000       1
N               5.37187000     -4.40694000     -4.25302000       7
I              -2.49094000      4.63540000      6.23875000      53
I               5.49632000      3.33814000     -5.10791000      53
H              -6.94796000      4.37825000      0.17677600       1
H              -1.81774000     -8.01752000      0.57584800       1
I              -5.54550000      3.33814000     -5.10791000      53
I               5.31068000      0.10559400      6.31756000      53
H               0.57096700      5.61620000     -6.05398000       1
H               0.94736300      6.20555000      5.49536000       1
H               7.14400000      0.10946100     -4.31332000       1
N              -5.66994000     -4.40694000     -4.25302000       7
C              -5.81462000     -4.84617000      3.55124000       6
H               4.71998000     -4.19737000      5.49536000       1
I              -6.29563000      3.86355000      3.96442000      53
I              -2.41805000     -3.13127000     -7.40226000      53
H               6.26484000     -3.98866000     -3.91073000       1
H              -6.46057000     -3.92611000     -3.79922000       1
C               1.50646000      6.08284000     -5.73912000       6
H              -8.09398000     -2.57772000     -0.39285500       1
P              -4.20907000      6.25243000      3.96168000      15
N              -1.54002000      8.33656000     -0.94748900       7
I              -5.73113000      0.10559400      6.31756000      53
H              -6.36354000     -5.04307000      2.62864000       1
H              -8.28495000     -1.41176000     -1.56392000       1
H               7.99645000      0.40855600      3.02372000       1
H               5.35913000     -5.40462000     -3.94298000       1
I               1.28167000     -5.76752000      6.23875000      53
C               1.08764000     -1.24828000      8.45086000       6
H               2.36013000      5.55451000     -6.16976000       1
H               5.29818000     -3.26668000     -6.02540000       1
H              -5.68268000     -5.40462000     -3.94298000       1
H              -5.34411000     -5.76192000      3.91348000       1
P              -7.76293000      1.01378000      3.97675000      15
I               8.68457000      1.09924000     -1.07216000      53
H              -3.00469000      8.29499000      0.56626300       1
H               4.34358000     -4.78672000     -6.05398000       1
I               4.90598000     -0.55689500     -7.36911000      53
I              -1.77288000     -7.06478000     -5.10791000      53
C               5.27908000     -4.32008000     -5.73912000       6
H              -5.74363000     -3.26668000     -6.02540000       1
H               7.36545000      1.68651000     -4.79183000       1
H               0.44097900     -0.81703300     -8.90092000       1
H               5.69770000     -5.76192000      3.91348000       1
H               2.76865000     -1.44278000     -8.48384000       1
P              -4.14660000      6.22142000     -5.10096000      15
N              -8.80922000     -2.06636000     -0.94748900       7
N               7.87272000      0.82273700     -4.49665000       7
H               8.33631000      1.01027000     -3.58234000       1
I               4.71225000      7.25916000     -2.91384000      53
H               1.79859000     -2.80988000     -8.50185000       1
H               2.81636000     -2.47328000      8.35654000       1
H              -7.29269000     -3.52114000      4.28587000       1
H               1.68186000     -8.47432000      3.05231000       1
H              -1.01575000      8.99116000     -1.56392000       1
I               1.64853000     -5.13295000     -7.43550000      53
C              -5.76274000     -4.32008000     -5.73912000       6
H              -4.90907000     -4.84841000     -6.16976000       1
H              -9.23241000     -0.64923900      0.55241800       1
N              -6.78542000     -4.38491000      4.58105000       7
I              -2.30295000      1.07316000      8.93312000      53
H               0.47752200     -0.82939500      9.25448000       1
P              -0.37704600      3.58822000      8.58753000      15
I              -2.12409000      5.26997000     -7.43550000      53
H              -6.32184000     -4.19737000      5.49536000       1
C              -2.51397000      9.03983000     -0.06323900       6
P               3.23928000      8.79586000     -0.49017500      15
P              -7.86194000      1.05715000     -5.11602000      15
H               1.52557000      7.13624000     -6.02540000       1
I               1.41538000     -9.30369000     -1.07216000      53
I               8.48487000     -3.14377000     -2.91384000      53
N               2.19477000     -2.04129000      9.06159000       7
P              -4.03026000     -1.61838000      8.50878000      15
I               5.29282000      7.79004000      1.64204000      53
N               2.15823000     -2.02893000     -9.09381000       7
C               8.93195000      0.87520200      3.33858000       6
I              -2.33949000      1.08552000     -9.22228000      53
I               9.06544000     -2.61289000      1.64204000      53
H               5.42968000      2.41224000      7.52643000       1
I              -1.89263000      8.53343000      3.96979000      53
H              -4.63208000      3.78352000      7.51378000       1
I              -6.13583000     -0.55689500     -7.36911000      53
H               8.95105000      1.92860000      3.05231000       1
H              -5.61213000      2.41224000      7.52643000       1
H              -9.26500000     -2.78304000     -1.55127000       1
I              -5.74899000      7.79004000      1.64204000      53
I               5.39121000     -7.69448000     -2.86448000      53
C               1.05110000     -1.23592000     -9.70454000       6
H               8.23411000      1.26918000      5.27849000       1
I               5.00744000     -8.33892000      1.67544000      53
C              -9.78316000     -1.36309000     -0.06323900       6
I               8.55885000      4.63839000      1.70859000      53
H               7.86647000     -6.02468000      0.17677600       1
H               0.09625260     -8.71642000     -4.79183000       1
H               6.13274000     -4.84841000     -6.16976000       1
H              -1.96321000      9.75368000      0.55241800       1
I              -5.65060000     -7.69448000     -2.86448000      53
H              -0.85946000     -6.61940000      7.51378000       1
I              -6.32956000      7.25916000     -2.91384000      53
H               4.38425000      3.09971000     -8.51144000       1
