200
cutoff_factor=1.20000000 nneightol=1.20000000 Lattice="28.52442000       0.00000000       0.00000000       0.00000000      28.60077000       0.00000000       0.00000000       0.00000000      29.84292000" Properties=species:S:1:pos:R:3:Z:I:1
H              -0.40525500      2.06362000     -0.88686500       1
I               1.92721000      1.36451000      1.38703000      53
H               0.35530000      0.75433500     -2.78186000       1
C               0.06892650      2.54508000     -1.74505000       6
H              -0.18929700     -3.05777000      0.88685500       1
H               1.13983000      2.66865000     -1.56929000       1
I               1.93612000     -1.26822000     -2.35431000      53
N              -0.11492000      1.66872000     -2.93848000       7
H              -0.94985300     -1.74848000      2.78184000       1
I              -2.53067000      0.27406600      2.35430000      53
H              -1.12199000      1.51007000     -3.12418000       1
I              -2.52177000     -2.35866000     -1.38704000      53
N              -0.47963500     -2.66287000      2.93846000       7
C              -0.66348300     -3.53923000      1.74504000       6
H              -0.39983600      3.51057000     -1.94823000       1
H               0.52743400     -2.50422000      3.12417000       1
P              -0.30833900      2.30958000      3.30216000      15
P               4.12509000     -0.49707500     -0.00000780      15
H               0.33241600      2.09055000     -3.78250000       1
H              -1.73438000     -3.66280000      1.56928000       1
I              -3.68740000      2.06148000     -1.76467000      53
P              -0.28621700     -3.30373000     -3.30217000      15
I               3.09284000     -3.05563000      1.76465000      53
P              -4.71965000     -0.49707500     -0.00000780      15
H              -0.19472600     -4.50472000      1.94823000       1
H              -0.92697300     -3.08470000      3.78249000       1
I              -1.02664000      4.92839000      1.76465000      53
H               2.99088000      4.32123000      1.56928000       1
I               0.80576500      0.07093320      5.58998000      53
H               3.45925000     -0.96670600     -4.57373000       1
I               5.15735000      2.06148000     -1.76467000      53
I              -1.40032000     -1.06508000     -5.58999000      53
H              -4.31420000      3.47931000      1.94823000       1
H               4.53054000      3.47931000      1.94823000       1
H              -4.05380000     -0.02743840      4.57372000       1
H               3.71964000     -4.47346000     -1.94823000       1
I               0.43208000     -5.92255000     -1.76467000      53
H               3.29448000     -0.49899500      5.22443000       1
I               2.20350000      5.62536000     -1.38704000      53
C               4.06178000      4.44480000      1.74504000       6
H               3.61724000      0.55741000     -5.23556000       1
I               2.33973000      2.77199000     -5.28949000      53
H              -3.88904000     -0.49515100     -5.22445000       1
H              -3.58544000     -5.31537000     -1.56929000       1
H              -4.30877000      4.92625000      0.88685500       1
H               4.79094000     -0.02743840      4.57372000       1
N               3.91950000     -0.43455800     -5.33978000       7
I               6.31407000      0.27406600      2.35430000      53
I              -5.75190000     -3.05563000      1.76465000      53
H               4.53597000      4.92625000      0.88685500       1
C              -4.78296000      4.44480000      1.74504000       6
I               6.32297000     -2.35866000     -1.38704000      53
H              -4.21180000     -1.55156000      5.23554000       1
N               4.33068000     -0.55958800      5.33976000       7
I              -2.20042000      3.05602000      5.80985000      53
I               1.79098000      4.21788000      5.28948000      53
N              -4.51406000     -0.55958800      5.33976000       7
H               3.71422000     -5.92041000     -0.88686500       1
H              -5.12510000     -4.47346000     -1.94823000       1
C               4.18840000     -5.43895000     -1.74505000       6
I              -2.93429000     -3.76614000      5.28948000      53
H              -5.38550000     -0.96670600     -4.57373000       1
H               4.63295000     -1.55156000      5.23554000       1
I              -6.91753000      1.36451000      1.38703000      53
H               4.95570000     -0.49515100     -5.22445000       1
P              -4.40569000      4.68030000     -3.30217000      15
P               4.43905000      4.68030000     -3.30217000      15
H              -3.59204000      5.47980000      3.12417000       1
H               2.43866000     -0.87001300     -6.78289000       1
I               1.60586000     -4.05017000     -5.80987000      53
H               3.79829000      4.89933000      3.78249000       1
N              -4.92524000     -0.43455800     -5.33978000       7
I              -2.79805000     -6.61952000      1.38703000      53
C              -4.65634000     -5.43895000     -1.74505000       6
I              -6.90863000     -1.26822000     -2.35431000      53
N               4.24563000      5.32115000      2.93846000       7
H              -5.22750000      0.55741000     -5.23556000       1
H              -3.03322000     -0.12413400      6.78288000       1
H              -5.85386000      4.32123000      1.56928000       1
I              -2.18336000      6.71581000     -2.35431000      53
I              -2.51361000      3.93385000     -5.80987000      53
P               0.00561798      7.48695000     -0.00000780      15
P               3.81114000     -5.67445000      3.30216000      15
C               3.52311000     -0.95509000     -6.68437000       6
N              -4.59911000      5.32115000      2.93846000       7
H              -5.55026000     -0.49899500      5.22443000       1
H               5.25930000     -5.31537000     -1.56929000       1
H               2.99749000     -6.47395000     -3.12418000       1
I              -2.38554000     -5.21203000     -5.28949000      53
H               3.77541000      6.23554000      2.78184000       1
C              -4.11767000     -0.03905750      6.68435000       6
I               1.91905000     -4.92800000      5.80985000      53
H              -5.13052000     -5.92041000     -0.88686500       1
H              -1.22013000      1.32631000     -7.70778000       1
H              -5.04645000      4.89933000      3.78249000       1
P               0.36558700      2.51394000      7.57850000      15
H               3.83146000     -2.00059000     -6.75344000       1
N               4.00456000     -6.31530000     -2.93848000       7
H               0.62556200     -2.32046000      7.70776000       1
H               4.41871000      1.00644000      6.75343000       1
H              -4.42603000      1.00644000      6.75343000       1
H               7.11036000     -3.66280000      1.56928000       1
C               4.72707000     -0.03905750      6.68435000       6
H               5.25270000      5.47980000      3.12417000       1
I               1.58881000     -7.70996000      2.35430000      53
H              -4.39285000     -5.89347000     -3.78250000       1
P              -5.03361000     -5.67445000      3.30216000      15
H               4.45189000     -5.89347000     -3.78250000       1
H              -7.70492000      2.66865000     -1.56929000       1
H               0.51347100      6.43247000      5.23554000       1
H              -0.66022800      7.01732000     -4.57373000       1
P              -0.96014800     -3.50809000     -7.57851000      15
H               7.72275000      1.51007000     -3.12418000       1
H               4.02509000     -0.35847300     -7.44925000       1
N              -4.84019000     -6.31530000     -2.93848000       7
P              -0.60017300     -8.48110000     -0.00000780      15
H              -5.06933000      6.23554000      2.78184000       1
H               7.89489000     -1.74848000      2.78184000       1
H               0.36630900      1.83786000     -8.37413000       1
H               4.22508000     -0.63567700      7.44923000       1
C              -5.32164000     -0.95509000     -6.68437000       6
H              -5.01328000     -2.00059000     -6.75344000       1
C              -0.71813800      1.92293000     -8.47266000       6
H               8.43949000      2.06362000     -0.88686500       1
I               5.91045000     -3.76614000      5.28948000      53
H              -4.61966000     -0.63567700      7.44923000       1
I              -6.64124000      5.62536000     -1.38704000      53
I              -6.50501000      2.77199000     -5.28949000      53
I               2.19460000      8.25809000      2.35430000      53
H              -4.81965000     -0.35847300     -7.44925000       1
H              -0.96087200     -2.83200000      8.37412000       1
H              -4.36997000     -7.22969000     -2.78186000       1
H               5.81152000     -0.12413400      6.78288000       1
H               4.47478000     -7.22969000     -2.78186000       1
C               0.12357500     -2.91708000      8.47265000       6
H              -8.48944000      0.75433500     -2.78186000       1
H              -1.02650000      2.96843000     -8.40359000       1
H              -0.28801100      5.98343000     -6.75344000       1
I               6.04669000     -6.61952000      1.38703000      53
C               8.18126000     -3.53923000      1.74504000       6
N               0.21120800      7.42444000      5.33976000       7
H              -1.10803000     -7.42661000     -5.23556000       1
H              -0.82499200      7.48503000      5.22443000       1
H               0.83622600      7.48887000     -5.22445000       1
H               0.67146400      7.95658000      4.57372000       1
H               8.65545000     -3.05777000      0.88685500       1
H               0.06567250     -8.01146000      4.57372000       1
H              -8.31731000     -2.50422000      3.12417000       1
N              -0.19997400      7.54947000     -5.33978000       7
N               8.36511000     -2.66287000      2.93846000       7
H              -5.84726000     -6.47395000     -3.12418000       1
H               0.43193200     -3.96258000      8.40357000       1
H               7.91777000     -3.08470000      3.78249000       1
C              -8.77582000      2.54508000     -1.74505000       6
I               6.64432000      3.05602000      5.80985000      53
H               8.44491000      3.51057000     -1.94823000       1
N               8.72982000      1.66872000     -2.93848000       7
I               7.44442000     -1.06508000     -5.58999000      53
H              -6.40608000     -0.87001300     -6.78289000       1
I               7.81811000      4.92839000      1.76465000      53
C               8.91367000      2.54508000     -1.74505000       6
P               8.53640000      2.30958000      3.30216000      15
I               6.33113000      3.93385000     -5.80987000      53
I               3.32494000      6.91894000     -5.58999000      53
H              -9.25000000      2.06362000     -0.88686500       1
H              -8.51233000      2.09055000     -3.78250000       1
P               3.76512000      4.47593000     -7.57851000      15
N              -8.95966000      1.66872000     -2.93848000       7
H              -9.03404000     -3.05777000      0.88685500       1
H               9.20004000      0.75433500     -2.78186000       1
I              -2.19226000      9.34853000      1.38703000      53
H              -0.30655300     -6.97758000      6.75343000       1
C              -0.59636800      7.02893000     -6.68437000       6
I               6.66138000      6.71581000     -2.35431000      53
P               8.55853000     -3.30373000     -3.30217000      15
I              -7.05376000      4.21788000      5.28948000      53
I              -8.03898000      0.07093320      5.58998000      53
I               6.45920000     -5.21203000     -5.28949000      53
H              -3.76418000      8.73836000     -2.78186000       1
H               8.65002000     -4.50472000      1.94823000       1
I              -2.78915000     -9.25224000     -2.35431000      53
I              -1.05980000      0.81000500      9.86752000      53
H               0.23043400     -8.47917000     -5.22445000       1
H              -0.81226400      0.41043500     -9.92147000       1
H              -1.68081000      7.11401000     -6.78289000       1
N              -1.11453000      1.40240000     -9.81725000       7
I               2.93160000      1.97186000      9.34715000      53
P              -9.15308000      2.30958000      3.30216000      15
N              -0.80576600     -8.41858000     -5.33978000       7
H              -3.68754000      4.02144000      8.40357000       1
H               0.21770700     -1.40458000      9.92145000       1
H              -0.50223600      8.54143000     -5.23556000       1
I               0.46524400     -1.80415000     -9.86754000      53
H              -1.43078000     -8.48302000      5.22443000       1
H              -9.24458000      3.51057000     -1.94823000       1
N              -0.39458300     -8.54361000      5.33976000       7
N               0.51996900     -2.39655000      9.81724000       7
I              -7.23888000     -4.05017000     -5.80987000      53
H              -1.26602000     -8.95073000     -4.57373000       1
N              -9.32438000     -2.66287000      2.93846000       7
