200
cutoff_factor=1.20000000 nneightol=1.20000000 Lattice="29.62157000       0.00000000       0.00000000       0.00000000      28.74435000       0.00000000       0.00000000       0.00000000      28.72032000" Properties=species:S:1:pos:R:3:Z:I:1
I              -0.79213400     -0.62997700      0.45390500      53
H               0.79166900     -1.04010000     -1.99091000       1
H              -0.01729510      2.00979000      1.32955000       1
C               1.59295000     -1.08898000     -2.72994000       6
C               0.35300600      2.92927000      1.78427000       6
H               2.24676000     -0.21923400     -2.64519000       1
P               1.10100000     -2.68073000      1.92315000      15
P              -3.33394000      0.90781200     -0.64982300      15
H               2.18260000      2.83131000      0.77023500       1
H               2.22901000      2.10912000      2.28239000       1
N               1.84245000      2.90384000      1.75633000       7
H               2.16753000     -2.01038000     -2.61008000       1
H               0.01132580      3.79826000      1.21726000       1
I              -1.52739000      3.00926000     -2.24063000      53
I               3.77934000     -1.27515000      0.82078600      53
H               0.02710670      3.00006000      2.82360000       1
H              -2.15230000     -3.38970000     -1.17031000       1
I               3.00991000      2.45442000     -1.60272000      53
H               0.41936300     -0.23826400     -4.26138000       1
N               0.97909500     -1.08794000     -4.09235000       7
H               0.37905300     -1.93250000     -4.22458000       1
I               1.11385000     -4.55476000     -0.63555800      53
I              -3.38608000      2.73719000      1.97423000      53
H               2.22642000      3.78430000      2.16123000       1
I              -3.48531000     -0.81407400     -3.38062000      53
I               1.30431000     -0.99879500      4.64399000      53
H              -3.31312000     -1.61397000      3.42984000       1
H              -2.13316000     -0.82309700      4.52713000       1
H              -3.42387000      0.14878200      3.74473000       1
C              -2.79303000     -4.27420000     -1.19375000       6
H               1.70840000     -1.14048000     -4.83520000       1
C              -3.16528000     -0.82367200      4.16915000       6
H              -2.90678000     -4.38281000      0.90194000       1
H              -4.12615000     -3.46983000      0.21878900       1
I              -1.52953000     -4.21885000      3.03770000      53
I              -5.23954000     -1.27515000      0.82078600      53
N              -3.55827000     -4.33689000      0.08711240       7
P               1.12172000      4.50479000     -3.24541000      15
H              -2.18861000     -5.17874000     -1.27990000       1
P               5.68494000      0.90781200     -0.64982300      15
H              -3.50437000     -4.20727000     -2.01865000       1
H               4.89273000     -3.46983000      0.21878900       1
H              -3.81031000      1.52242000     -4.66874000       1
H              -2.20735000      5.71838000     -1.27990000       1
I              -0.68494700     -4.18693000     -4.72428000      53
I               1.09510000      6.34237000     -0.63555800      53
I               1.34230000      2.52078000     -5.80709000      53
H               3.95103000     -1.08208000      5.04151000       1
I               5.53357000     -0.81407400     -3.38062000      53
I               5.63281000      2.73719000      1.97423000      53
I              -0.74168500      3.19062000      5.72680000      53
H              -4.18327000     -5.15339000      0.11623800       1
I              -6.00897000      2.45442000     -1.60272000      53
I               2.95649000     -4.94981000      3.40122000      53
H              -3.91417000      3.17782000     -4.40743000       1
H               5.59501000      0.14878200      3.74473000       1
N              -4.06808000     -1.08684000      5.32936000       7
H              -2.09516000      2.69648000     -5.92395000       1
H               5.70576000     -1.61397000      3.42984000       1
N              -4.03009000      2.43274000     -5.12172000       7
N               5.46061000     -4.33689000      0.08711240       7
H               4.83561000     -5.15339000      0.11623800       1
H              -4.20202000      5.74373000      0.11623800       1
H               3.98902000      2.43750000     -5.40957000       1
H               5.20857000      1.52242000     -4.66874000       1
H              -2.92552000      6.51431000      0.90194000       1
H               0.03007020     -7.09886000      1.21726000       1
H               5.51451000     -4.20727000     -2.01865000       1
H              -3.84830000     -1.99716000      5.78234000       1
H              -3.95216000     -0.34175100      6.04365000       1
H              -5.06785000     -1.08208000      5.04151000       1
C               5.85360000     -0.82367200      4.16915000       6
H               0.38136900     -3.75784000      6.18970000       1
P               1.14046000     -6.39233000     -3.24541000      15
H              -6.77213000     -0.21923400     -2.64519000       1
C              -2.81177000      6.62292000     -1.19375000       6
P              -3.41350000      4.52784000      4.60516000      15
P              -3.35676000     -2.84971000     -5.84591000      15
P               1.08372000      0.98521600      7.20567000      15
N               4.95080000     -1.08684000      5.32936000       7
H              -6.83629000      2.83131000      0.77023500       1
I               2.93774000      5.94731000      3.40122000      53
H               5.10472000      3.17782000     -4.40743000       1
H              -6.78987000      2.10912000      2.28239000       1
N              -3.57702000      6.56023000      0.08711240       7
H               1.67041000     -4.66006000      5.61588000       1
H               4.81687000      5.74373000      0.11623800       1
I              -1.54827000      6.67827000      3.03770000      53
C              -3.12728000      2.69590000     -6.28193000       6
N               4.98879000      2.43274000     -5.12172000       7
H               6.11211000     -4.38281000      0.90194000       1
I               3.77037000      2.42226000      6.11598000      53
I              -1.49153000     -0.69927300     -7.41338000      53
H              -6.85136000     -2.01038000     -2.61008000       1
I               3.82711000     -4.95528000     -4.33510000      53
C               6.22585000     -4.27420000     -1.19375000       6
H               6.86658000     -3.38970000     -1.17031000       1
H               2.24517000     -7.11282000      2.16123000       1
H              -5.02986000      2.43750000     -5.40957000       1
I               2.99448000     -1.43023000     -7.04986000      53
H              -3.52312000      6.68985000     -2.01865000       1
H               5.06672000     -0.34175100      6.04365000       1
H              -2.17105000      7.50742000     -1.17031000       1
N               0.94110000     -4.60752000      6.35873000       7
N              -7.17643000      2.90384000      1.75633000       7
H              -3.27513000      1.90561000     -7.02124000       1
C              -7.42593000     -1.08898000     -2.72994000       6
H               5.17058000     -1.99716000      5.78234000       1
H              -6.79246000      3.78430000      2.16123000       1
C               0.37175100     -7.96785000      1.78427000       6
I              -0.70369100      6.71019000     -4.72428000      53
I               8.22675000     -0.62997700      0.45390500      53
H               0.32231400      5.44504000      6.22650000       1
H               6.88573000     -0.82309700      4.52713000       1
I               3.80837000      5.94184000     -4.33510000      53
H               0.34105900     -5.45208000      6.22650000       1
I              -1.50865000     -7.88786000     -2.24063000      53
H              -3.38588000      3.66836000     -6.70635000       1
I              -1.56538000     -0.51031400      8.21044000      53
I               7.49149000      3.00926000     -2.24063000      53
I              -5.19177000     -4.95528000     -4.33510000      53
H               0.04585110     -7.89706000      2.82360000       1
N               1.86119000     -7.99328000      1.75633000       7
H               2.20134000     -8.06581000      0.77023500       1
I              -5.24851000      2.42226000      6.11598000      53
P               1.08225000      8.21639000      1.92315000      15
H              -4.14489000      7.42729000      0.21878900       1
N               5.44187000      6.56023000      0.08711240       7
H              -8.22721000     -1.04010000     -1.99091000       1
I              -6.06239000     -4.94981000      3.40122000      53
P               5.60538000      4.52784000      4.60516000      15
H               1.65166000      6.23706000      5.61588000       1
P              -3.39475000     -6.36929000      4.60516000      15
P              -7.91788000     -2.68073000      1.92315000      15
P               5.66212000     -2.84971000     -5.84591000      15
P               1.13899000      0.83885000     -8.52793000      15
H               6.83027000     -5.17874000     -1.27990000       1
H               0.08384530     -4.37749000     -7.62748000       1
H              -7.31048000     -1.14048000     -4.83520000       1
H               4.87399000      7.42729000      0.21878900       1
H               5.49576000      6.68985000     -2.01865000       1
H               2.20876000     -3.73881000      7.80589000       1
H               6.09336000      6.51431000      0.90194000       1
H               6.81153000      5.71838000     -1.27990000       1
H               0.00144929     -8.88733000      1.32955000       1
N               0.92235600      6.28961000      6.35873000       7
I              -3.52330000     -4.33365000      7.07046000      53
I              -5.21051000      5.94184000     -4.33510000      53
C               5.89160000      2.69590000     -6.28193000       6
I              -3.36733000     -8.15994000      1.97423000      53
I              -7.71457000     -0.99879500      4.64399000      53
N              -8.03979000     -1.08794000     -4.09235000       7
I               3.02865000     -8.44270000     -1.60272000      53
I               7.48936000     -4.21885000      3.03770000      53
C               1.55496000     -4.60856000      7.72114000       6
I              -7.90503000     -4.55476000     -0.63555800      53
C               6.20711000      6.62292000     -1.19375000       6
I              -6.08114000      5.94731000      3.40122000      53
H               5.74375000      1.90561000     -7.02124000       1
H               9.00159000      2.00979000      1.32955000       1
H               2.28316000     -3.59324000     -8.28985000       1
C              -8.66588000      2.92927000      1.78427000       6
H              -9.03618000      2.00979000      1.32955000       1
H               2.24775000     -8.78800000      2.28239000       1
I              -6.02440000     -1.43023000     -7.04986000      53
I               2.97191000     -1.06516000      8.84836000      53
H               0.36262500      7.13928000      6.18970000       1
H               5.63301000      3.66836000     -6.70635000       1
H               6.92372000      2.69648000     -5.92395000       1
H               2.14878000      8.88674000     -2.61008000       1
H              -8.59952000     -0.23826400     -4.26138000       1
I              -0.72294100     -7.70650000      5.72680000      53
H               0.75367500     -4.55968000      8.46017000       1
P              -7.89717000      4.50479000     -3.24541000      15
P               5.62413000     -6.36929000      4.60516000      15
H              -3.56111000      3.17027000      8.43243000       1
H              -2.24535000      2.19880000      9.17118000       1
H              -3.89542000     -7.71930000     -4.40743000       1
H               2.11079000      5.36716000      7.84100000       1
C               0.40974500     -4.44827000     -8.66681000       6
H              -8.63983000     -1.93250000     -4.22458000       1
H               2.12953000     -5.52996000      7.84100000       1
I              -9.81102000     -0.62997700      0.45390500      53
H              -9.00756000      3.79826000      1.21726000       1
H               9.03021000      3.79826000      1.21726000       1
H              -8.99178000      3.00006000      2.82360000       1
H               0.06806430     -3.57929000     -9.23382000       1
H               0.36030800      8.96462000     -4.22458000       1
H               9.04599000      3.00006000      2.82360000       1
I               5.49558000     -4.33365000      7.07046000      53
I              -7.67658000      2.52078000     -5.80709000      53
N               1.89919000     -4.47371000     -8.69475000       7
C               9.37189000      2.92927000      1.78427000       6
H               2.28575000     -5.26843000     -8.16869000       1
H              -2.86878000     -0.86323500     -9.54914000       1
H               0.06510080      6.51963000     -7.62748000       1
H              -6.77372000     -7.11282000      2.16123000       1
H               9.81055000     -1.04010000     -1.99091000       1
C               1.53621000      6.28856000      7.72114000       6
H               0.77292400      9.85702000     -1.99091000       1
