200
cutoff_factor=1.20000000 nneightol=1.20000000 Lattice="28.05173000       0.00000000       0.00000000       0.00000000      28.22992000       0.00000000       0.00000000       0.00000000      28.99145000" Properties=species:S:1:pos:R:3:Z:I:1
H               0.47674000      0.98233300      1.27538000       1
I              -1.77641000      0.53569800     -0.94098800      53
C               0.15438500      1.39768000      2.23290000       6
H              -0.93457200      1.36759000      2.31585000       1
P               0.59224800     -1.05353000     -2.60013000      15
I               1.44395000     -2.60034000      0.04679190      53
H               0.39158200     -0.41316000      3.22818000       1
H               0.51879800      2.42109000      2.34724000       1
I               2.65903000      1.23992000     -1.80869000      53
N               0.73372200      0.56483900      3.32374000       7
H               0.59876400      2.96099000     -1.83225000       1
H              -3.34351000     -1.27059000      0.05983300       1
H               1.77690000      0.56431900      3.25462000       1
H              -3.31492000     -2.24116000      1.40489000       1
H              -2.43951000     -3.44042000     -0.49787800       1
I              -1.54129000     -2.24795000      3.31997000      53
N               0.28307200      3.94979000     -1.79122000       7
N              -3.76507000     -2.12747000      0.47418300       7
H               0.43534800      0.90618300      4.25799000       1
H              -0.75937900      3.97895000     -1.81782000       1
H               0.65082700      4.35126000     -0.90390600       1
H               4.01457000     -1.97535000      0.60508400       1
C              -3.51883000     -3.31209000     -0.38793900       6
P              -4.00363000      2.80747000     -0.05026460      15
I               4.18570000      0.95202600      2.46631000      53
I              -1.35266000     -3.39067000     -3.53968000      53
I              -0.31025200      0.78640600     -5.10882000      53
H              -2.79742000      0.37902900     -4.36120000       1
I              -1.93507000      4.58033000      1.56720000      53
H              -4.78910000     -1.97535000      0.60508400       1
P               0.68778600     -4.49647000      2.56315000      15
H              -3.98455000     -3.13437000     -1.36007000       1
I              -4.61798000      0.95202600      2.46631000      53
N               5.03861000     -2.12747000      0.47418300       7
P               4.80004000      2.80747000     -0.05026460      15
C               0.82267600      4.65665000     -2.98337000       6
H               5.46016000     -1.27059000      0.05983300       1
H              -4.26458000      0.88554800     -3.68054000       1
H               0.43486100      4.16473000     -3.87835000       1
I               2.63162000      5.03124000      0.79344200      53
H              -3.96126000     -4.18667000      0.09454790       1
H               1.91323000      4.59792000     -2.95618000       1
I               2.87052000     -2.82513000      4.21661000      53
I               2.88536000     -2.66176000     -4.40364000      53
N              -3.83466000      0.37280400     -4.47638000       7
H               4.81912000     -3.13437000     -1.36007000       1
H               4.53909000      0.88554800     -3.68054000       1
I              -3.14537000      4.40183000     -2.72739000      53
H               5.48876000     -2.24116000      1.40489000       1
H              -4.20724000     -0.59709900     -4.44744000       1
H               0.57943000      4.86853000      3.76549000       1
C               5.28485000     -3.31209000     -0.38793900       6
P              -3.70101000     -0.71330100      5.14008000      15
I              -1.61896000      1.71224000      5.94076000      53
H               4.84242000     -4.18667000      0.09454790       1
H               4.59644000     -0.59709900     -4.44744000       1
H               0.49360600      5.69737000     -2.94735000       1
I              -1.40071000     -6.28194000      0.79344200      53
I              -6.14464000      1.23992000     -1.80869000      53
N               4.96901000      0.37280400     -4.47638000       7
H               3.53959000      1.06364000     -5.86157000       1
H               0.09211290      3.77690000      5.89696000       1
H               0.70187500     -2.77445000      6.46605000       1
C               0.12252400      5.42562000      4.58652000       6
I               7.02726000      0.53569800     -0.94098800      53
H              -0.96473200      5.43764000      4.48283000       1
H               0.07107810      7.12650000      0.09454790       1
H              -3.78407000      2.07039000     -5.72356000       1
C              -4.17682000      1.05162000     -5.75788000       6
H               6.36416000     -3.44042000     -0.49787800       1
H              -3.53873000     -5.61580000     -2.94735000       1
P               5.10266000     -0.71330100      5.14008000      15
P               0.80331300     -5.08730000     -5.20432000      15
H               6.00625000      0.37902900     -4.36120000       1
C               4.62685000      1.05162000     -5.75788000       6
I               2.83627000     -6.73285000      1.56720000      53
I               2.94669000      0.98332400      6.80472000      53
H               0.76062100     -1.24181000      7.39706000       1
N               0.46468800      4.74680000      5.86802000       7
H              -3.71992000      0.49452800     -6.57892000       1
H              -3.51706000     -4.86879000      4.62084000       1
I               1.62597000     -6.91135000     -2.72739000      53
H              -2.11910000     -6.71526000     -2.95618000       1
I               5.65830000      4.40183000     -2.72739000      53
H              -7.02677000      0.56431900      3.25462000       1
C               1.08969000     -2.28253000      7.36103000       6
H               1.50193000      4.75303000      5.98320000       1
H              -3.38151000     -6.96192000     -0.90390600       1
I              -7.35972000     -2.60034000      0.04679190      53
I              -5.93316000     -2.82513000      4.21661000      53
I               2.60350000      4.11405000     -6.12780000      53
I              -5.91831000     -2.66176000     -4.40364000      53
H               5.01960000      2.07039000     -5.72356000       1
H               0.51527500      6.44439000      4.62084000       1
H              -5.26408000      1.06364000     -5.86157000       1
C              -3.20966000     -6.65652000     -2.98337000       6
H              -3.86400000     -3.46781000     -6.08641000       1
I              -6.17205000      5.03124000      0.79344200      53
C               0.51350800      8.00109000     -0.38793900       6
H               1.59282000      7.87276000     -0.49787800       1
H               2.18025000     -2.34126000      7.38822000       1
I              -0.04323690     -6.15277000      5.23558000      53
P               0.42077100      2.44271000     -7.78125000      15
H              -3.45290000     -6.44465000      3.76549000       1
H               5.26495000     -5.61580000     -2.94735000       1
H               0.04778110      8.17881000     -1.36007000       1
I               7.26238000     -2.24795000      3.31997000      53
H               3.80661000     -5.87554000      4.48283000       1
H               7.86910000      1.36759000      2.31585000       1
H               5.08376000      0.49452800     -6.57892000       1
P              -4.08356000      6.81670000      2.56315000      15
I               3.98910000      5.16040000      5.23558000      53
I               6.86860000      4.58033000      1.56720000      53
C              -3.90981000     -5.88756000      4.58652000       6
H              -2.52245000     -3.80968000     -7.08978000       1
N              -3.74926000     -7.36339000     -1.79122000       7
H              -8.32693000      0.98233300      1.27538000       1
H               0.03476810      5.25955000      6.66386000       1
I              -2.87836000     -2.53735000      7.61701000      53
P               0.76771100     -8.50571000     -0.05026460      15
H               5.28662000     -4.86879000      4.62084000       1
H               4.01196000     -7.33423000     -1.81782000       1
H               4.93967000     -3.46781000     -6.08641000       1
I              -0.11365000     -3.42197000     -7.87809000      53
I              -1.80831000      4.69123000     -7.02443000      53
P              -8.21143000     -1.05353000     -2.60013000      15
P               4.72012000      6.81670000      2.56315000      15
N              -8.06995000      0.56483900      3.32374000       7
N              -3.56563000     -3.80916000     -7.02066000       7
I              -4.81458000      5.16040000      5.23558000      53
H              -6.89044000      4.59792000     -2.95618000       1
H               5.42217000     -6.96192000     -0.90390600       1
H              -3.59747000     -7.14845000     -3.87835000       1
H              -8.20491000      2.96099000     -1.83225000       1
I               7.45101000     -3.39067000     -3.53968000      53
H              -4.99707000     -5.87554000      4.48283000       1
C               4.89387000     -5.88756000      4.58652000       6
H              -8.28488000      2.42109000      2.34724000       1
H              -4.79171000     -7.33423000     -1.81782000       1
H              -8.41209000     -0.41316000      3.22818000       1
I              -5.85699000      0.98332400      6.80472000      53
P              -3.96803000      6.22588000     -5.20432000      15
H              -0.49236400     -2.96023000      8.52658000       1
C              -8.64929000      1.39768000      2.23290000       6
H              -3.78055000     -1.95291000     -7.99716000       1
H               0.31479600      1.23963000      8.98433000       1
N               0.55008700     -2.98939000      8.55318000       7
I               2.67967000      7.92250000     -3.53968000      53
N               5.05441000     -7.36339000     -1.79122000       7
I              -5.96741000     -6.73285000      1.56720000      53
I               2.56925000      0.20633400     -8.77720000      53
H               8.04430000      3.97895000     -1.81782000       1
H               5.35077000     -6.44465000      3.76549000       1
C               5.59402000     -6.65652000     -2.98337000       6
N               0.26726800      9.18571000      0.47418300       7
H               0.71741700      9.07201000      1.40489000       1
H              -3.43357000     -8.35219000     -1.83225000       1
H              -2.53041000     -6.56015000      5.98320000       1
H              -8.15285000      4.35126000     -0.90390600       1
H               3.56975000     -3.00640000     -8.02855000       1
P              -3.91208000      3.32046000      7.74427000      15
I              -3.32739000      8.71284000      0.04679190      53
C               8.95806000      1.39768000      2.23290000       6
H              -0.75676900      9.33783000      0.60508400       1
H               9.28042000      0.98233300      1.27538000       1
H              -3.90777000     -4.78716000     -7.11622000       1
H              -8.36833000      0.90618300      4.25799000       1
H               0.86577900     -3.97819000      8.51215000       1
P               4.83565000      6.22588000     -5.20432000      15
I               7.18471000      1.71224000      5.94076000      53
N              -3.56765000     -6.56638000      5.86802000       7
N               5.23805000     -3.80916000     -7.02066000       7
N              -8.52060000      3.94979000     -1.79122000       7
I              -1.42883000     -7.19912000     -6.12780000      53
C              -4.14496000     -2.97632000     -8.11150000       6
P              -8.11589000     -4.49647000      2.56315000      15
I              -6.20017000      4.11405000     -6.12780000      53
H               5.02312000     -1.95291000     -7.99716000       1
H               0.12456700      6.52602000     -7.11622000       1
H               5.20620000     -7.14845000     -3.87835000       1
I              -1.90082000      8.48805000      4.21661000      53
C              -7.98100000      4.65665000     -2.98337000       6
I              -1.66773000      0.65724100     -9.55096000      53
I               7.40296000     -6.28194000      0.79344200      53
P               4.89160000      3.32046000      7.74427000      15
H               9.19526000     -0.41316000      3.22818000       1
P               9.39592000     -1.05353000     -2.60013000      15
C               4.65871000     -2.97632000     -8.11150000       6
H               0.91784200     -2.58792000      9.44049000       1
H              -3.51354000     -8.89209000      2.34724000       1
H              -3.99757000     -6.05363000      6.66386000       1
H               4.89591000     -4.78716000     -7.11622000       1
I              -1.88598000      8.65141000     -4.40364000      53
H               9.32247000      2.42109000      2.34724000       1
H               6.68457000     -6.71526000     -2.95618000       1
H               0.16833300      7.84536000     -6.08641000       1
I               8.49342000      0.78640600     -5.10882000      53
I               2.49104000      9.06523000      3.31997000      53
I               5.92532000     -2.53735000      7.61701000      53
H               9.40244000      2.96099000     -1.83225000       1
