200
cutoff_factor=1.20000000 nneightol=1.20000000 Lattice="29.37520000       0.00000000       0.00000000       0.00000000      28.90013000       0.00000000       0.00000000       0.00000000      27.00999000" Properties=species:S:1:pos:R:3:Z:I:1
H              -0.62960900      1.00790000     -0.28598700       1
H               0.90430900      0.48312700     -0.67620100       1
N               0.22437400      1.25206000     -0.82401500       7
H               0.64368200      2.10856000     -0.40163800       1
I              -1.85946000     -0.23410800      1.82620000      53
C              -0.08307320      1.43497000     -2.27330000       6
H              -0.55427000      0.52161300     -2.64249000       1
I               2.58446000     -0.86848400      1.02434000      53
I              -0.59532400     -2.67854000     -1.62900000      53
P               0.05325300     -2.82830000      1.52195000      15
H               0.85356300      1.61961000     -2.80212000       1
H              -0.76006200      2.28543000     -2.38097000       1
H               0.84442700      1.27728000      3.88458000       1
H              -3.13372000     -2.52839000     -1.16641000       1
I               1.99280000      3.67833000      1.09174000      53
I              -3.86436000      1.80949000     -1.63306000      53
H              -0.56661500      0.59784100      4.75958000       1
H               4.32217000     -2.14304000     -0.36737800       1
H              -1.06738000      2.80614000      3.84077000       1
C               0.19739000      1.37849000      4.75880000       6
P              -4.42422000      1.71416000      1.53254000      15
N              -4.04923000     -2.89725000     -0.83177600       7
P               4.49642000      1.71416000      1.53254000      15
H              -4.59847000     -2.14304000     -0.36737800       1
I               2.46509000     -0.83469500     -4.46909000      53
H               3.16583000     -3.89770000     -1.56594000       1
H              -3.82613000     -3.61684000     -0.11733800       1
I              -2.43770000      4.26500000      1.90636000      53
N              -0.48358600      2.70730000      4.69167000       7
H               3.89753000     -2.70470000     -2.68912000       1
I               0.57000200     -2.93477000      4.66445000      53
P              -0.01843210     -2.83515000     -4.76186000      15
I               5.05628000      1.80949000     -1.63306000      53
I              -2.02356000     -0.37075400     -5.25178000      53
H               3.95241000     -1.51826000      3.84510000       1
N               4.87141000     -2.89725000     -0.83177600       7
C               4.09993000     -3.49065000     -1.95974000       6
I              -2.52495000     -4.80720000      1.90636000      53
H              -3.58784000     -2.65643000      3.72137000       1
I               1.90555000     -5.39388000      1.09174000      53
H               0.20119700      3.48974000      4.69154000       1
H               0.78683100      1.33755000      5.67768000       1
I               2.03258000      3.74905000     -4.45312000      53
H               5.09451000     -3.61684000     -0.11733800       1
C              -4.82071000     -3.49065000     -1.95974000       6
H              -5.02311000     -2.70470000     -2.68912000       1
H               3.25308000      5.17451000     -1.56594000       1
H              -1.09872000      2.85951000      5.51737000       1
H               3.67075000     -3.28604000      3.97610000       1
I               3.99431000      1.56810000      4.65917000      53
H               5.78692000     -2.52839000     -1.16641000       1
P               0.14050500      6.24391000      1.52195000      15
H              -4.96823000     -1.51826000      3.84510000       1
H              -4.21857000     -4.28189000     -2.41128000       1
I              -6.33619000     -0.86848400      1.02434000      53
C               4.36422000     -2.46941000      4.18904000       6
H              -3.73888000      5.45537000     -0.11733800       1
I              -0.50807300      6.39367000     -1.62900000      53
C              -4.55642000     -2.46941000      4.18904000       6
P               4.43557000      1.69137000     -4.77803000      15
P              -4.48507000      1.69137000     -4.77803000      15
H              -4.13132000      4.79031000     -2.41128000       1
H               4.70207000     -4.28189000     -2.41128000       1
I              -4.92633000      1.56810000      4.65917000      53
H               0.55643100     -6.96364000     -0.40163800       1
H               5.33280000     -2.65643000      3.72137000       1
H              -5.75481000     -3.89770000     -1.56594000       1
H               0.76932000      1.31486000     -6.97426000       1
H              -3.66755000     -1.65090000      5.91181000       1
I              -2.42299000      4.17345000     -5.28172000      53
H               4.78933000      4.79031000     -2.41128000       1
I               1.94533000     -5.32316000     -4.45312000      53
H              -0.84731300     -6.78677000     -2.38097000       1
C               4.18718000      5.58156000     -1.95974000       6
H               0.11394500     -5.58246000      4.69154000       1
I               7.06119000     -0.23410800      1.82620000      53
H              -3.04647000      6.54381000     -1.16641000       1
H              -5.24989000     -3.28604000      3.97610000       1
N              -3.96198000      6.17496000     -0.83177600       7
H              -1.15463000     -6.26607000      3.84077000       1
H               3.68268000     -2.14228000      6.15496000       1
H               5.18176000      5.45537000     -0.11733800       1
N              -4.35745000     -2.38969000      5.66256000       7
C              -4.73346000      5.58156000     -1.95974000       6
I              -2.51024000     -4.89876000     -5.28172000      53
N               4.56319000     -2.38969000      5.66256000       7
I              -2.00604000     -0.34806600      7.40016000      53
I               0.65725400      6.13743000      4.66445000      53
H              -1.11623000      2.83682000     -7.13458000       1
H               3.66517000     -2.16497000     -6.49698000       1
H              -5.66756000      5.17451000     -1.56594000       1
P               0.06881950      6.23706000     -4.76186000      15
H              -3.68507000     -1.67358000     -6.74013000       1
N               0.13712200     -7.82015000     -0.82401500       7
I              -6.45556000     -0.83469500     -4.46909000      53
I              -6.92784000      3.67833000      1.09174000      53
N              -0.57083700     -6.36491000      4.69167000       7
H              -0.58412600      0.57515300     -7.89236000       1
H              -3.98904000     -3.27849000      6.06187000       1
N               4.95867000      6.17496000     -0.83177600       7
H               3.75801000      5.78617000      3.97610000       1
C              -0.17032500     -7.63723000     -2.27330000       6
H               3.98478000      6.36751000     -2.68912000       1
I               6.48294000      4.26500000      1.90636000      53
H               0.76631200     -7.45260000     -2.80212000       1
C               0.17987800      1.35580000     -7.89314000       6
H              -8.01633000      0.48312700     -0.67620100       1
H               5.25309000     -1.65090000      5.91181000       1
H              -0.71686000     -8.06430000     -0.28598700       1
H              -3.50059000      6.41577000      3.72137000       1
H               4.40942000      6.92916000     -0.36737800       1
I               6.39569000     -4.80720000      1.90636000      53
H              -4.51122000      6.92916000     -0.36737800       1
H               8.29103000      1.00790000     -0.28598700       1
H              -5.23796000     -2.14228000      6.15496000       1
P              -0.00092040     -2.81246000      7.89008000      15
H              -4.00655000     -3.30118000     -6.59007000       1
H              -1.18597000     -6.21270000      5.51737000       1
N              -0.50109800      2.68461000     -7.96027000       7
I              -3.95161000     -7.26272000     -1.63306000      53
H               4.93160000     -3.27849000      6.06187000       1
H              -4.93586000      6.36751000     -2.68912000       1
I               0.55249000     -2.95746000     -7.98749000      53
H              -8.27696000      2.10856000     -0.40163800       1
I               2.48260000     -0.81200700      8.18286000      53
N              -4.37496000     -2.41237000     -6.98938000       7
H              -5.25547000     -2.16497000     -6.49698000       1
H               0.81705800     -8.58908000     -0.67620100       1
I               6.89709000     -0.37075400     -5.25178000      53
N               4.54568000     -2.41237000     -6.98938000       7
H               0.18368500      3.46705000     -7.96041000       1
I               2.67171000      8.20372000      1.02434000      53
H              -8.06708000      1.61961000     -2.80212000       1
H               5.23558000     -1.67358000     -6.74013000       1
P               4.40917000     -7.35805000      1.53254000      15
H              -5.16264000      5.78617000      3.97610000       1
H               0.75717500     -7.79493000      3.88458000       1
P              -4.51147000     -7.35805000      1.53254000      15
H               8.36637000      0.52161300     -2.64249000       1
H               8.16058000      2.28543000     -2.38097000       1
I              -2.40548000      4.19613000      7.37022000      53
N              -8.69627000      1.25206000     -0.82401500       7
H               4.91409000     -3.30118000     -6.59007000       1
H               5.87418000      6.54381000     -1.16641000       1
H               0.82691500      1.25459000     -8.76736000       1
I               8.32532000     -2.67854000     -1.62900000      53
I              -7.01509000     -5.39388000      1.09174000      53
I               4.96903000     -7.26272000     -1.63306000      53
H              -0.64152100     -8.55059000     -2.64249000       1
C               4.45147000      6.60279000      4.18904000       6
C              -4.46917000      6.60279000      4.18904000       6
I              -6.88806000      3.74905000     -4.45312000      53
C               0.11013800     -7.69372000      4.75880000       6
H              -8.07622000      1.27728000      3.88458000       1
I               3.97680000      1.54542000     -7.99277000      53
H               7.85326000      2.80614000      3.84077000       1
I              -2.49273000     -4.87607000      7.37022000      53
H               5.42006000      6.41577000      3.72137000       1
I              -1.77221000      8.83810000      1.82620000      53
P               4.45308000      1.71406000      7.87391000      15
P              -4.46756000      1.71406000      7.87391000      15
C               8.83757000      1.43497000     -2.27330000       6
H              -3.90179000      5.79371000      6.06187000       1
I               2.05010000      3.77174000      8.19882000      53
N               9.14502000      1.25206000     -0.82401500       7
H              -1.08489000      2.78345000     -8.81117000       1
I               6.49765000      4.17345000     -5.28172000      53
H               4.03966000      7.55395000      3.84510000       1
C              -9.00372000      1.43497000     -2.27330000       6
P              -8.86739000     -2.82830000      1.52195000      15
I              -4.94384000      1.54542000     -7.99277000      53
P               8.97390000     -2.82830000      1.52195000      15
H              -1.20349000     -6.23539000     -7.13458000       1
H              -3.91930000      5.77102000     -6.59007000       1
H              -9.55025000      1.00790000     -0.28598700       1
H               0.69958000     -7.73466000      5.67768000       1
H               0.99156100      9.55533000     -0.67620100       1
H               8.35403000      0.59784100      4.75958000       1
I               6.41040000     -4.89876000     -5.28172000      53
I               3.90706000     -7.50410000      4.65917000      53
I              -1.94671000     -9.30631000      1.82620000      53
I               2.55234000      8.23751000     -4.46909000      53
H               0.09643340     -5.60515000     -7.96041000       1
H              -0.65386600     -8.47437000      4.75958000       1
N              -4.27020000      6.68252000      5.66256000       7
H               3.93490000     -1.54094000     -8.80684000       1
H               5.01886000      5.79371000      6.06187000       1
H              -4.88098000      7.55395000      3.84510000       1
H               9.56433000      2.10856000     -0.40163800       1
P               4.34832000     -7.38084000     -4.77803000      15
C               4.34671000     -2.49210000     -8.46290000       6
I              -6.97531000     -5.32316000     -4.45312000      53
H              -9.47491000      0.52161300     -2.64249000       1
H               9.82495000      0.48312700     -0.67620100       1
P              -4.57232000     -7.38084000     -4.77803000      15
N               4.65044000      6.68252000      5.66256000       7
C              -4.57394000     -2.49210000     -8.46290000       6
I               1.96284000     -5.30047000      8.19882000      53
H              -0.46701800      9.59382000     -2.64249000       1
H               3.65324000     -3.30872000     -8.67584000       1
