200
cutoff_factor=1.20000000 nneightol=1.20000000 Lattice="29.02970000       0.00000000       0.00000000       0.00000000      29.24216000       0.00000000       0.00000000       0.00000000      28.39454000" Properties=species:S:1:pos:R:3:Z:I:1
H               0.52463200     -1.55930000      0.08640100       1
I              -1.23486000      1.05536000     -0.34743500      53
C               0.26813100     -2.29929000      0.84761300       6
H              -0.79030900     -2.22750000      1.10773000       1
H               0.86706900     -1.07040000      2.44778000       1
H               1.11460000      0.99848500     -2.49841000       1
N               1.07608000     -2.01677000      2.07193000       7
H               0.50929600     -3.30586000      0.49868500       1
P               0.50513200      3.17281000      1.30591000      15
H               2.09292000     -2.08887000      1.87292000       1
I               3.15728000      1.70024000      0.23106100      53
I               2.30195000     -1.78775000     -2.46189000      53
N               1.26242000      1.74438000     -3.20686000       7
H               1.10536000      2.66087000     -2.74246000       1
H               0.84569000     -2.69873000      2.82204000       1
I               0.39118500      1.19900000      3.87224000      53
P              -3.87337000     -0.41098700     -1.29088000      15
H              -0.69647800      1.61127000     -3.97560000       1
I              -2.10929000     -2.62509000     -2.78455000      53
H               2.25158000      1.68157000     -3.52020000       1
C               0.32731800      1.55017000     -4.35154000       6
H               0.51738300      0.56783500     -4.78983000       1
I              -4.07397000     -2.37152000      1.25298000      53
H              -2.25613000      1.71305000      4.13759000       1
P               4.98401000     -0.41098700     -1.29088000      15
H              -3.95201000      0.13006500      3.41314000       1
I               0.78685200      4.97263000     -1.39285000      53
H              -4.29247000      1.78586000      2.80874000       1
I               4.78342000     -2.37152000      1.25298000      53
I              -2.13408000      4.61587000      2.29866000      53
P               0.53629900     -3.97678000     -3.93272000      15
H               0.51288000      2.33742000     -5.08520000       1
H               4.56491000      1.78586000      2.80874000       1
H               3.66872000      1.14628000      4.22614000       1
C              -4.23576000      1.14728000      3.69222000       6
I              -1.16897000     -2.77932000      5.00567000      53
N              -3.18831000      1.69976000      4.59617000       7
I              -3.99176000      1.41242000     -4.04703000      53
H              -3.83777000      3.95107000     -2.05153000       1
H              -2.57125000      5.10746000     -1.52162000       1
I              -5.70010000      1.70024000      0.23106100      53
H               4.90537000      0.13006500      3.41314000       1
C               4.62162000      1.14728000      3.69222000       6
I               0.77609100     -5.95578000     -1.39285000      53
H               3.40103000      5.21371000     -0.75630100       1
H              -4.18613000      4.69687000      0.22440300       1
H              -4.27391000     -4.63095000     -0.24962700       1
H              -3.08775000      1.13742000      5.46835000       1
H              -3.20167000     -2.21718000     -5.07831000       1
C              -3.62761000      4.98573000     -1.77174000       6
I               2.32772000      5.27970000      2.87315000      53
I               4.86562000      1.41242000     -4.04703000      53
H               4.58347000     -4.63095000     -0.24962700       1
H              -3.41471000      2.67076000      4.88888000       1
H              -2.58201000     -5.82095000     -1.52162000       1
I               3.23408000     -2.02037000      5.41046000      53
H               4.67125000      4.69687000      0.22440300       1
P               0.65021600     -0.62217500      6.61393000      15
H               3.39027000     -5.71470000     -0.75630100       1
H              -3.52862000     -0.68384100     -5.65778000       1
H               5.01961000      3.95107000     -2.05153000       1
I               2.31696000     -5.64871000      2.87315000      53
H              -5.18867000      1.14628000      4.22614000       1
P              -3.82872000     -4.16698000      3.94240000      15
N               4.41681000      5.32333000     -0.56533800       7
N              -4.44057000      5.32333000     -0.56533800       7
H               0.63130000      3.92244000      5.75682000       1
N              -3.30223000     -1.65484000     -5.95049000       7
I               0.27726800     -2.15560000     -6.67442000      53
H              -2.37005000     -1.64155000     -6.40906000       1
H              -3.91993000     -5.26328000     -2.57927000       1
I              -2.14484000     -6.31255000      2.29866000      53
N               4.40605000     -5.60508000     -0.56533800       7
N              -4.45133000     -5.60508000     -0.56533800       7
C              -3.63837000     -5.94268000     -1.77174000       6
I              -6.55543000     -1.78775000     -2.46189000      53
H              -6.76446000     -2.08887000      1.87292000       1
H              -3.90917000      5.66513000     -2.57927000       1
I              -1.27213000      4.79449000     -5.54098000      53
C               5.22977000      4.98573000     -1.77174000       6
N               5.66907000      1.69976000      4.59617000       7
H              -4.19689000     -6.23154000      0.22440300       1
H               3.55480000     -2.20832000     -6.32051000       1
H              -5.45635000      5.21371000     -0.75630100       1
H               0.61603600     -5.23639000      5.46145000       1
H              -4.26314000      6.29746000     -0.24962700       1
P               5.02866000     -4.16698000      3.94240000      15
H               0.52005700      7.62255000      0.49868500       1
H               4.93745000     -5.26328000     -2.57927000       1
H              -6.60580000      1.68157000     -3.52020000       1
I               7.62252000      1.05536000     -0.34743500      53
I               6.74809000     -2.62509000     -2.78455000      53
H               4.66049000     -6.23154000      0.22440300       1
H               5.44267000      2.67076000      4.88888000       1
H               4.59424000      6.29746000     -0.24962700       1
H               5.32876000     -0.68384100     -5.65778000       1
P               0.49437200     -7.75560000      1.30591000      15
H               0.62679600      5.69202000      5.46145000       1
C               0.44123500      4.90477000      6.19512000       6
H               5.65571000     -2.21718000     -5.07831000       1
H              -5.46711000     -5.71470000     -0.75630100       1
H               4.94821000      5.66513000     -2.57927000       1
H               6.60125000      1.71305000      4.13759000       1
P               0.54706000      6.95164000     -3.93272000      15
H               5.76963000      1.13742000      5.46835000       1
I              -1.99538000      0.72950900      7.76210000      53
I              -5.62330000     -2.02037000      5.41046000      53
I               3.12016000     -5.37497000     -5.13620000      53
C               5.21901000     -5.94268000     -1.77174000       6
I               3.13092000      5.55344000     -5.13620000      53
H              -7.74278000      0.99848500     -2.49841000       1
I               2.21381000      1.92510000     -7.67351000      53
H              -3.84853000     -6.97734000     -2.05153000       1
H               6.28613000      5.10746000     -1.52162000       1
H              -0.58256100      4.96587000      6.57105000       1
N              -7.78130000     -2.01677000      2.07193000       7
N               5.55515000     -1.65484000     -5.95049000       7
I              -1.28289000     -6.13392000     -5.54098000      53
P              -3.93188000      3.40683000     -6.60425000      15
C              -4.34968000     -2.20733000     -6.85443000       6
H              -7.99031000     -1.07040000      2.44778000       1
N              -7.59496000      1.74438000     -3.20686000       7
H               8.06707000     -2.22750000      1.10773000       1
I               6.72330000      4.61587000      2.29866000      53
H              -8.33275000     -1.55930000      0.08640100       1
C               4.50770000     -2.20733000     -6.85443000       6
H              -5.30258000     -2.20832000     -6.32051000       1
I               2.41587000      1.56685000      8.08476000      53
I              -2.24799000      1.26126000     -8.24800000      53
H              -7.75202000      2.66087000     -2.74246000       1
C               0.43047400     -6.02364000      6.19512000       6
C               0.27889200      8.62912000      0.84761300       6
H               6.27537000     -5.82095000     -1.52162000       1
P              -3.81796000      6.76143000      3.94240000      15
H               0.85645100      8.22968000      2.82204000       1
H               1.09460000     -8.26754000     -2.74246000       1
H              -0.77954800      8.70091000      1.10773000       1
H              -4.06593000     -3.22454000     -7.13352000       1
H               5.00885000     -6.97734000     -2.05153000       1
I              -6.52966000      5.27970000      2.87315000      53
H              -0.59332200     -5.96254000      6.57105000       1
H              -8.01169000     -2.69873000      2.82204000       1
P               4.92550000      3.40683000     -6.60425000      15
C              -8.58925000     -2.29929000      0.84761300       6
I              -3.87785000      4.76702000      6.49962000      53
H               2.36550000      5.03617000      7.02645000       1
H              -8.34808000     -3.30586000      0.49868500       1
I              -2.09853000      8.30332000     -2.78455000      53
P              -8.35225000      3.17281000      1.30591000      15
H              -3.80602000     -1.90868000      7.96738000       1
H              -4.40638000     -1.56874000     -7.73791000       1
N               1.37634000      5.09898000      7.33979000       7
H               4.45100000     -1.56874000     -7.73791000       1
H               0.62053900     -7.00598000      5.75682000       1
I              -6.54042000     -5.64871000      2.87315000      53
H               0.74253500      4.87508000     -7.72462000       1
H               4.79145000     -3.22454000     -7.13352000       1
N               1.08684000      8.91164000      2.07193000       7
H               8.16090000      1.61127000     -3.97560000       1
H               1.22852000      4.35309000      8.04825000       1
P               0.39121600     -0.18178900     -9.24074000      15
H               0.75315200     -4.42500000     -8.09888000       1
H               6.48733000     -1.64155000     -6.40906000       1
H               2.10368000      8.83954000      1.87292000       1
H               1.20852000     -4.91294000      7.80419000       1
P               5.03942000      6.76143000      3.94240000      15
H               0.53539300      9.36911000      0.08640100       1
I              -8.46620000      1.19900000      3.87224000      53
I              -5.73722000     -5.37497000     -5.13620000      53
C               9.12551000     -2.29929000      0.84761300       6
H               2.35474000     -5.89224000      7.02645000       1
N               1.36558000     -5.82943000      7.33979000       7
I               4.97953000      4.76702000      6.49962000      53
I              -5.72646000      5.55344000     -5.13620000      53
I               6.71254000     -6.31255000      2.29866000      53
H               9.38201000     -1.55930000      0.08640100       1
I              -4.06320000      8.55689000      1.25298000      53
I               0.89000700     -2.60118000      9.15380000      53
I              -8.07053000      4.97263000     -1.39285000      53
I               7.68841000     -2.77932000      5.00567000      53
H               5.05136000     -1.90868000      7.96738000       1
I              -1.15821000      8.14909000      5.00567000      53
H              -8.34000000      0.56783500     -4.78983000       1
H              -2.46810000     -2.46635000      9.02504000       1
C              -8.53006000      1.55017000     -4.35154000       6
I               2.31271000      9.14066000     -2.46189000      53
I               3.14652000     -9.22817000      0.23106100      53
I              -3.88861000     -6.16139000      6.49962000      53
C              -3.52445000     -2.58808000      8.77491000       6
N               1.25166000     -9.18403000     -3.20686000       7
H               0.73177400     -6.05333000     -7.72462000       1
I               4.79418000      8.55689000      1.25298000      53
H               1.21928000      6.01547000      7.80419000       1
H               9.36668000     -3.30586000      0.49868500       1
I              -1.24562000     -9.87305000     -0.34743500      53
H              -3.73461000     -3.62274000      8.49513000       1
H              -9.64769000     -2.22750000      1.10773000       1
P               9.36251000      3.17281000      1.30591000      15
H               0.50211900     -8.59099000     -5.08520000       1
P              -8.32108000     -3.97678000     -3.93272000      15
