200
cutoff_factor=1.20000000 nneightol=1.20000000 Lattice="28.67181000       0.00000000       0.00000000       0.00000000      29.02369000       0.00000000       0.00000000       0.00000000      28.66614000" Properties=species:S:1:pos:R:3:Z:I:1
H               0.88903500     -0.09235680      1.28393000       1
C               1.40878000     -1.00735000      1.57352000       6
H               1.96590000     -1.48239000     -0.41714100       1
H               0.70608100     -1.83933000      1.65869000       1
I              -1.76822000      1.16560000      1.51064000      53
N               2.40606000     -1.33299000      0.51315700       7
H              -2.24885000      0.48401700     -2.13735000       1
H               3.09828000     -0.56570500      0.38966600       1
H              -1.27486000      1.98916000     -2.18552000       1
H               1.94473000     -0.85882900      2.51292000       1
I               1.44881000      2.62758000     -1.37363000      53
I              -2.19809000     -2.37029000     -1.44176000      53
C              -2.17339000      1.49052000     -2.55161000       6
H               2.95463000     -2.18743000      0.73939300       1
P              -0.10727100      3.83971000      1.18101000      15
I               2.09742000     -1.59495000     -3.07173000      53
P              -3.70173000     -1.28828000      1.18091000      15
H              -3.06133000      2.07429000     -2.29818000       1
H              -1.27022000      0.83273700     -4.33487000       1
N              -2.08550000      1.38740000     -4.03867000       7
I               2.31509000      2.79595000      3.08264000      53
I              -1.96379000     -3.18441000      3.10149000      53
H              -1.98725000      0.93608000      4.37088000       1
P               3.55341000      1.29604000     -3.38054000      15
P              -0.12894100     -3.93801000     -3.34944000      15
I               5.28405000      0.44592900     -0.74110100      53
H              -2.95047000      0.94002500     -4.41679000       1
H              -2.00700000      2.34364000     -4.45170000       1
I               1.20285000     -5.34475000     -0.76312900      53
I              -2.37152000      5.03275000     -0.76312900      53
I              -5.64035000      0.44592900     -0.74110100      53
I               1.40530000     -1.08845000      5.43723000      53
H               4.66716000      3.29952000     -0.27113000       1
H              -1.69450000     -5.58127000     -0.29398800       1
C              -2.07025000      0.68484700      5.42872000       6
H              -1.25487000      0.02743630      5.73326000       1
H              -4.70276000      3.36844000      1.58123000       1
H               4.50569000     -2.66570000     -3.05081000       1
H               4.61210000      3.44495000      2.13645000       1
H              -1.79413000     -5.53772000      2.10767000       1
H              -4.73150000     -2.80249000     -2.96991000       1
H               3.97193000      4.84259000      0.31682900       1
I               5.07511000     -3.73431000      0.75810400      53
H               0.66898200      5.35107000     -3.39087000       1
H              -3.03384000      0.21460700      5.63679000       1
C               4.87991000      4.24167000      0.23673500       6
I               1.73904000      1.95206000     -5.92617000      53
H              -3.37811000     -5.53491000      0.31682900       1
H               5.23470000     -3.50472000     -1.78823000       1
I              -1.48125000      5.13009000      3.81161000      53
I              -1.33212000     -2.44509000     -5.94502000      53
H               2.44796000      5.16390000     -3.29440000       1
I              -5.43993000     -0.40227000      3.73915000      53
C              -2.47013000     -6.13583000      0.23673500       6
H              -1.08429000      2.43854000      6.05775000       1
I               5.48448000     -0.40227000      3.73915000      53
P               3.51827000      1.30302000      5.67822000      15
N              -1.98079000      1.94467000      6.22103000       7
I               2.09312000     -5.24741000      3.81161000      53
P              -0.14941600     -3.84043000      5.64712000      15
N               5.29640000     -3.29637000     -2.80664000       7
N               5.36663000      3.94093000      1.61290000       7
I               1.50075000      6.64319000      0.75810400      53
H              -5.68970000     -3.50472000     -1.78823000       1
N              -1.98341000     -6.43657000      1.61290000       7
I              -5.84930000     -3.73431000      0.75810400      53
N              -5.55777000      3.94093000      1.61290000       7
C               1.63258000      5.82131000     -3.59895000       6
H              -2.77150000      2.57533000      5.97686000       1
H              -6.25725000      3.29952000     -0.27113000       1
N              -5.62800000     -3.29637000     -2.80664000       7
H              -5.26887000      4.79623000     -0.29398800       1
H               0.96488600     -1.79608000     -6.89121000       1
H               1.90870000     -0.40124800     -6.91999000       1
H               6.22165000      3.36844000      1.58123000       1
H              -1.12839000     -7.00906000      1.58123000       1
H               1.66034000      6.87278000     -1.78823000       1
I              -1.73710000      4.73420000     -5.28851000      53
I              -5.12846000     -0.11094100     -5.21605000      53
C              -6.04450000      4.24167000      0.23673500       6
H               4.24335000     -5.02643000     -3.39087000       1
H               6.19290000     -2.80249000     -2.96991000       1
H               5.65554000      4.79623000     -0.29398800       1
P               7.22268000     -1.28828000      1.18091000      15
I               5.10813000      4.04802000     -3.59043000      53
H               5.21458000     -2.79283000      4.57596000       1
P               3.46710000     -6.53779000      1.18101000      15
H              -6.31231000      3.44495000      2.13645000       1
H              -5.36849000      4.83978000      2.10767000       1
H               4.27111000     -4.19644000      4.61088000       1
H              -2.68288000     -7.07798000     -0.27113000       1
H              -6.41871000     -2.66570000     -3.05081000       1
I              -2.24192000     -6.32948000     -3.59043000      53
H               5.55592000      4.83978000      2.10767000       1
H              -2.04249000      1.73631000      7.23944000       1
N               1.71942000     -1.30010000     -7.41476000       7
H               0.69674800      6.18106000      4.61088000       1
H              -2.73794000     -6.93255000      2.13645000       1
I               5.79594000     -0.11094100     -5.21605000      53
C               5.20695000     -4.55619000     -3.59895000       6
N               1.72204000      7.08113000     -2.80664000       7
H              -5.70983000     -2.79283000      4.57596000       1
H               1.71557000      6.07255000     -4.65679000       1
H              -7.82612000     -0.56570500      0.38966600       1
H              -4.90208000     -5.21360000     -3.29440000       1
I              -5.81628000      4.04802000     -3.59043000      53
I               1.83726000     -5.64330000     -5.28851000      53
H               2.37700000      6.07377000      4.69279000       1
H              -4.97304000     -4.30373000      4.69279000       1
N               5.13608000     -3.74906000      4.98899000       7
H               2.57443000     -1.87259000     -7.44643000       1
P              -3.70331000      6.43949000     -3.34944000      15
C              -5.71746000     -4.55619000     -3.59895000       6
P              -7.37100000      1.29604000     -3.38054000      15
I               1.44913000      2.87075000      7.58591000      53
H              -0.61973300      8.19007000      0.73939300       1
H               5.28994000     -4.30495000     -4.65679000       1
H              -7.96977000     -2.18743000      0.73939300       1
H               0.93132700      7.71180000     -3.05081000       1
I              -2.25401000     -2.50888000      7.65403000      53
N               1.56171000      6.62844000      4.98899000       7
H               7.86308000      2.07429000     -2.29818000       1
H              -6.95248000      4.84259000      0.31682900       1
H              -5.63447000     -4.30495000     -4.65679000       1
H               4.16025000     -3.06218000      6.72949000       1
N              -5.78833000     -3.74906000      4.98899000       7
H               2.61854000      7.57501000     -2.96991000       1
H               6.02233000     -5.21360000     -3.29440000       1
H               0.51303900     -8.30321000     -2.29818000       1
N              -8.51834000     -1.33299000      0.51315700       7
I              -2.14647000      1.40216000     -8.26956000      53
I              -5.17977000      3.64608000      5.95594000      53
H               5.95136000     -4.30373000      4.69279000       1
H               0.32471300     -0.39843900     -8.71083000       1
P               0.00109937      3.84819000     -7.84676000      15
P              -3.75449000     -1.40133000     -7.84666000      15
C               1.23269000     -0.99936500     -8.79093000       6
H               8.67556000      0.48401700     -2.13735000       1
H               1.95271000     -0.34023300      8.73368000       1
H               2.29950000     -8.38834000     -2.18552000       1
C               5.04819000     -3.64595000      6.47605000       6
H               0.96433200     -1.83695000      8.75653000       1
H               1.64021000      7.58467000      4.57596000       1
H              -6.68106000     -5.02643000     -3.39087000       1
H              -4.97769000     -3.14731000      6.84214000       1
I               5.74463000      3.64608000      5.95594000      53
H              -1.60847000      8.89511000     -0.41714100       1
H               1.39836000      5.72505000      6.89032000       1
H              -1.70249000     -6.09986000     -6.51474000       1
H              -8.95851000     -1.48239000     -0.41714100       1
H              -6.65329000     -4.19644000      4.61088000       1
I              -1.60541000     -6.73142000      5.95594000      53
N              -1.16830000      9.04451000      0.51315700       7
I               8.72632000     -2.37029000     -1.44176000      53
H              -2.86829000      8.53817000      1.65869000       1
H               7.97394000      0.94002500     -4.41679000       1
H               4.40891000      3.29714000     -7.36897000       1
C               8.75102000      1.49052000     -2.55161000       6
H               1.56736000     -8.03386000     -4.45170000       1
I               5.02318000     -7.74991000     -1.37363000      53
C               1.40097000     -8.88698000     -2.55161000       6
I               9.15619000      1.16560000      1.51064000      53
H               0.26910200     -0.29387400      9.34449000       1
H               7.54629000     -5.53491000      0.31682900       1
H              -8.97968000     -0.85882900      2.51292000       1
C               1.17708000     -0.89479900      9.26440000       6
P              -3.72378000      6.53707000      5.64712000      15
H              -5.27685000      4.27764000     -6.51474000       1
I              -1.47695000      8.78255000     -3.07173000      53
P              -7.40613000      1.30302000      5.67822000      15
C               1.47382000      6.73155000      6.47605000       6
C              -5.87622000     -3.64595000      6.47605000       6
I              -8.82699000     -1.59495000     -3.07173000      53
I               5.38625000      7.19309000      3.10149000      53
I               1.80615000     -9.21190000      1.51064000      53
H               2.00832000     -0.44479900     -9.32165000       1
H               1.01994000     -1.94151000     -9.29879000       1
I              -8.60931000      2.79595000      3.08264000      53
I               4.85006000     -0.10371700      8.26454000      53
I              -5.53816000      7.19309000      3.10149000      53
H               5.94672000     -3.14731000      6.84214000       1
I              -5.03495000     -7.58155000      3.08264000      53
H               5.64755000      4.27764000     -6.51474000       1
I               5.15195000      8.00721000     -1.44176000      53
I               1.58123000     -4.69054000      8.28656000      53
H               4.97273000     -4.65245000      6.89032000       1
C              -9.51562000     -1.00735000      1.57352000       6
H               7.89056000      0.21460700      5.63679000       1
C              -2.16558000      9.37015000      1.57352000       6
H              -4.26695000      2.94904000     -8.28827000       1
H              -2.75818000     -5.33339000     -7.74374000       1
N               8.83891000      1.38740000     -4.03867000       7
H              -0.47608200      9.81179000      0.38966600       1
I              -5.90123000     -7.74991000     -1.37363000      53
H               0.80286700     -7.80217000      5.97686000       1
P               3.64831000      9.08922000      1.18091000      15
I              -9.47559000      2.62758000     -1.37363000      53
C               5.11161000      4.12912000     -7.45414000       6
I               8.55289000      5.03275000     -0.76312900      53
H               0.58588700      7.31532000      6.72949000       1
