200
cutoff_factor=1.20000000 nneightol=1.20000000 Lattice="28.48691000       0.00000000       0.00000000       0.00000000      29.45157000       0.00000000       0.00000000       0.00000000      28.50551000" Properties=species:S:1:pos:R:3:Z:I:1
P               1.95979000      0.27499500     -0.69153400      15
H              -1.83153000      0.86012900      1.02391000       1
I              -0.65263400      2.12295000     -0.90285900      53
I               0.05858610     -2.32888000     -0.76644500      53
H              -1.22114000     -0.21952600      2.13678000       1
N              -2.10142000      0.14028900      1.72714000       7
H              -2.58778000     -0.61342700      1.19813000       1
I               1.65720000      0.21243700      2.51660000      53
H              -2.05073000     -0.68678800     -2.88750000       1
H               1.72065000     -2.91165000      1.67178000       1
C              -3.00686000      0.71593500      2.76682000       6
H              -3.17693000      0.70947000     -2.83827000       1
H              -2.49236000      1.54890000      3.24914000       1
C              -2.72042000     -0.05312860     -3.47357000       6
I               2.04414000      0.12688100     -3.91553000      53
H              -1.17629000      1.20675000     -4.10702000       1
H              -3.91823000      1.06524000      2.27612000       1
I              -4.36287000     -1.63595000     -0.48194000      53
H              -3.23889000     -0.06461360      3.49419000       1
I               3.84846000      2.83151000     -0.65815000      53
I               4.52497000     -1.63595000     -0.48194000      53
C               2.21526000     -3.80482000      2.05817000       6
N              -1.92014000      0.62922300     -4.52982000       7
P              -2.49742000     -4.24960000     -0.71211800      15
H               0.44902100      4.28268000      2.70955000       1
H               2.35261000     -2.57715000     -3.70645000       1
H               2.39142000      4.45492000      1.26032000       1
H               2.36258000     -4.53409000      1.26032000       1
H              -3.49050000     -0.65718600     -3.95871000       1
H               1.69506000      4.40328000     -2.49107000       1
H              -1.47834000     -0.06346350     -5.17073000       1
H               3.16980000     -3.54191000      2.51969000       1
P              -2.46858000      4.73941000     -0.71211800      15
H               0.42018400     -4.70633000      2.70955000       1
H               1.66623000     -4.58572000     -2.49107000       1
H               1.12228000     -3.73108000      3.85475000       1
I              -2.34118000     -4.28572000      2.49839000      53
H               1.83242000      3.76716000      3.55952000       1
N               1.33698000     -4.41705000      3.09962000       7
H               4.96962000      1.06524000      2.27612000       1
H               2.00923000      3.45594000     -3.98277000       1
N               1.36582000      4.57196000      3.09962000       7
I              -2.31234000      4.70328000      2.49839000      53
I              -5.03938000      2.83151000     -0.65815000      53
H              -2.53163000      1.22962000     -5.12441000       1
H               0.66379600     -4.31347000     -3.95437000       1
C               1.68780000      4.42047000     -3.58332000       6
N               2.61832000     -3.52200000     -4.04607000       7
P               1.78632000      0.24396800      5.71283000      15
C               2.24410000      5.18418000      2.05817000       6
C               1.65896000     -4.56853000     -3.58332000       6
I              -0.86607900      2.05032000      5.67203000      53
H               0.69263400      4.67554000     -3.95437000       1
I              -2.63976000     -4.03172000     -3.90520000      53
I               0.07332720     -2.49751000      5.82548000      53
H               3.58910000     -3.72795000     -3.73812000       1
H               5.71092000      0.70947000     -2.83827000       1
H               6.30007000     -0.61342700      1.19813000       1
C               5.88098000      0.71593500      2.76682000       6
H               1.74949000      6.07736000      1.67178000       1
H               1.80358000     -5.22185000      3.55952000       1
H               1.15111000      5.25793000      3.85475000       1
H               5.64895000     -0.06461360      3.49419000       1
H               2.66115000     -3.45695000     -5.08494000       1
I               0.08742340      6.66013000     -0.76644500      53
H               5.39734000     -0.65718600     -3.95871000       1
H               3.19863000      5.44709000      2.51969000       1
I              -2.61093000      4.95728000     -3.90520000      53
I              -0.68147100     -6.86606000     -0.90285900      53
P              -6.92806000      0.27499500     -0.69153400      15
N               6.78643000      0.14028900      1.72714000       7
C               6.16743000     -0.05312860     -3.47357000       6
H               1.98039000     -5.53306000     -3.98277000       1
H               7.05632000      0.86012900      1.02391000       1
H              -5.71805000     -3.54191000      2.51969000       1
I               3.54872000      2.95843000      5.58990000      53
I               3.81963000     -6.15750000     -0.65815000      53
N               2.64716000      5.46701000     -4.04607000       7
H               6.39548000      1.54890000      3.24914000       1
I              -0.63037300     -1.40794000     -7.23428000      53
H               3.61794000      5.26105000     -3.73812000       1
P               2.09852000      0.40130500     -7.13441000      15
H               6.83712000     -0.68678800     -2.88750000       1
H              -5.29874000     -3.72795000     -3.73812000       1
I               4.41403000     -1.60212000      5.84054000      53
I              -4.47381000     -1.60212000      5.84054000      53
P              -2.63907000     -4.22133000      5.68976000      15
I               0.26377300      3.02052000     -6.98364000      53
I              -7.23064000      0.21243700      2.51660000      53
P               6.39042000     -4.24960000     -0.71211800      15
H               2.38144000      6.41185000     -3.70645000       1
P              -2.61023000      4.76767000      5.68976000      15
I              -6.84370000      0.12688100     -3.91553000      53
H              -7.16719000     -2.91165000      1.67178000       1
H              -6.53524000     -2.57715000     -3.70645000       1
C              -6.67258000     -3.80482000      2.05817000       6
H               7.66670000     -0.21952600      2.13678000       1
H              -6.49642000      4.45492000      1.26032000       1
H               2.68999000      5.53206000     -5.08494000       1
I              -5.06822000     -6.15750000     -0.65815000      53
P               6.41926000      4.73941000     -0.71211800      15
H              -6.52526000     -4.53409000      1.26032000       1
H              -2.04760000      0.90941600      7.73923000       1
I               6.54666000     -4.28572000      2.49839000      53
N              -6.26952000     -3.52200000     -4.04607000       7
H               6.35621000      1.22962000     -5.12441000       1
H              -5.68921000      5.44709000      2.51969000       1
I              -5.33912000      2.95843000      5.58990000      53
H              -5.26991000      5.26105000     -3.73812000       1
N               6.96770000      0.62922300     -4.52982000       7
I              -4.07693000      2.12513000     -6.99870000      53
I               6.24808000     -4.03172000     -3.90520000      53
H              -1.86036000     -8.12888000      1.02391000       1
I               3.84267000     -2.31605000     -7.15214000      53
I               6.57550000      4.70328000      2.49839000      53
H              -2.52120000     -7.44011000      3.24914000       1
I              -4.33404000      7.35306000     -0.48194000      53
I               8.23521000      2.12295000     -0.90285900      53
P              -2.39278000     -4.12240000     -7.11135000      15
H               1.61862000     -3.39302000      7.69977000       1
I               4.55381000      7.35306000     -0.48194000      53
H              -6.87862000      3.45594000     -3.98277000       1
C              -6.64375000      5.18418000      2.05817000       6
I               0.10216500      6.49150000      5.82548000      53
H              -6.22669000     -3.45695000     -5.08494000       1
H              -7.05543000      3.76716000      3.55952000       1
I               4.81091000      2.12513000     -6.99870000      53
H              -7.19278000      4.40328000     -2.49107000       1
H               7.71156000      1.20675000     -4.10702000       1
H              -2.55894000      8.37558000      1.19813000       1
H              -1.20512000     -7.78226000     -4.10702000       1
I               6.27692000      4.95728000     -3.90520000      53
H              -7.22162000     -4.58572000     -2.49107000       1
P              -2.36394000      4.86661000     -7.11135000      15
I               3.51989000     -6.03058000      5.58990000      53
P               1.93095000     -8.71401000     -0.69153400      15
I              -0.89491600     -6.93869000      5.67203000      53
H              -2.02189000      8.30222000     -2.88750000       1
H               7.40950000     -0.06346350     -5.17073000       1
I              -5.04517000     -2.31605000     -7.15214000      53
I               1.53933000      0.33464400      8.91898000      53
N              -2.09043000      0.84436600      8.77811000       7
H              -1.19230000      8.76948000      2.13678000       1
P              -7.10152000      0.24396800      5.71283000      15
H              -3.94706000     -7.92377000      2.27612000       1
I              -8.82926000     -2.32888000     -0.76644500      53
H              -1.11965000      0.63841500      9.08606000       1
C              -7.20004000      4.42047000     -3.58332000       6
H               2.70075000      4.30290000      7.65345000       1
I               0.23493600     -5.96849000     -6.98364000      53
N              -6.24068000      5.46701000     -4.04607000       7
C              -3.03570000     -8.27307000      2.76682000       6
N              -2.13025000     -8.84872000      1.72714000       7
C              -7.22888000     -4.56853000     -3.58332000       6
I               1.62837000     -8.77657000      2.51660000      53
I               8.94643000     -2.32888000     -0.76644500      53
N              -7.55086000     -4.41705000      3.09962000       7
H              -3.20576000     -8.27954000     -2.83827000       1
H              -2.72836000     -1.16670000      8.84141000       1
N              -7.52202000      4.57196000      3.09962000       7
H               2.67192000     -4.68610000      7.65345000       1
H              -7.76557000     -3.73108000      3.85475000       1
P               6.24878000     -4.22133000      5.68976000      15
N               2.23011000     -3.99342000      8.29436000       7
H              -7.08426000     -5.22185000      3.55952000       1
P               1.98862000      9.26400000     -0.69153400      15
H              -3.02798000      0.89156300     -8.96943000       1
N              -2.07258000      9.12930000      1.72714000       7
H              -7.13835000      6.07736000      1.67178000       1
H              -1.24998000     -9.20853000      2.13678000       1
H              -2.34668000     -0.59921100     -9.26465000       1
H              -2.35614000      1.78921000      9.11773000       1
H               4.94078000     -7.92377000      2.27612000       1
H               0.68859100      3.70918000      8.86546000       1
H              -2.56047000     -7.75939000     -5.12441000       1
H               1.64746000      5.59599000      7.69977000       1
I               1.68604000      9.20144000      2.51660000      53
H              -6.90745000     -5.53306000     -3.98277000       1
N              -1.94898000     -8.35978000     -4.52982000       7
P               6.27761000      4.76767000      5.68976000      15
C              -3.04978000     -0.20216600      9.24086000       6
H              -6.19786000      5.53206000     -5.08494000       1
H              -4.04495000      0.05289570      8.86980000       1
I              -9.54048000      2.12295000     -0.90285900      53
I              -5.36796000     -6.03058000      5.58990000      53
H               2.97397000     -3.41589000      8.71715000       1
H              -8.43882000      4.28268000      2.70955000       1
H              -3.46167000      8.33182000     -3.95871000       1
P              -6.78933000      0.40130500     -7.13441000      15
H              -6.50640000      6.41185000     -3.70645000       1
I               2.01530000     -8.86213000     -3.91553000      53
N               2.25895000      4.99559000      8.29436000       7
C              -2.69158000      8.93588000     -3.47357000       6
H              -2.61661000     -9.60243000      1.19813000       1
I               8.02176000      2.05032000      5.67203000      53
H              -8.46766000     -4.70633000      2.70955000       1
H              -1.80269000      9.84914000      1.02391000       1
C              -2.74925000     -9.04214000     -3.47357000       6
H              -8.22405000     -4.31347000     -3.95437000       1
H               4.84289000      0.05289570      8.86980000       1
