200
cutoff_factor=1.20000000 nneightol=1.20000000 Lattice="28.55915000       0.00000000       0.00000000       0.00000000      28.40928000       0.00000000       0.00000000       0.00000000      29.16275000" Properties=species:S:1:pos:R:3:Z:I:1
P               0.55519800      0.06198810      0.01933910      15
I              -1.44296000     -2.40340000     -0.21495600      53
I              -1.82796000      2.15164000     -0.34593200      53
I               0.18478900      0.09268520      3.23431000      53
I               1.12097000      0.06892430     -3.16416000      53
I               3.05011000     -1.90737000      0.51513100      53
I               2.55509000      2.57411000      0.41275200      53
H              -2.62746000     -0.34993900     -2.51521000       1
H              -0.10126300     -3.71860000      1.63391000       1
H              -3.20760000      1.08235000      2.28736000       1
H              -2.86256000     -0.42022900      3.20637000       1
H               1.03956000      2.65214000     -3.25359000       1
H               0.79901900      3.82728000      1.88988000       1
C              -3.69208000     -0.10649400     -2.49322000       6
H               3.81770000     -0.39739800      2.37811000       1
H              -4.17564000     -0.58380900     -1.63867000       1
H              -3.83535000      0.97581900     -2.45862000       1
C              -3.42711000      0.51468300      3.19410000       6
H              -0.05847760      4.37977000     -1.94357000       1
H               3.49297000      1.03881000      3.19179000       1
H              -0.03243590     -3.51573000     -3.36706000       1
H              -0.70612600      4.13286000      2.63916000       1
H               1.76155000     -3.38824000      3.18601000       1
H               0.16644300     -3.04633000      3.93450000       1
H              -0.13071900     -4.60355000     -1.94357000       1
N               0.13139000     -4.43598000      2.34944000       7
H               4.77570000     -0.58380900     -1.63867000       1
N               0.20363200      4.54735000      2.34944000       7
N               4.07466000      0.18536700      3.20452000       7
N               1.09098000      3.64808000     -3.54937000       7
H               3.61333000     -0.41357800     -3.74491000       1
C               0.81683600     -3.82102000      3.52272000       6
H              -3.20071000      1.10991000      4.08137000       1
H              -0.98594100      3.99521000     -3.43083000       1
C              -0.06681570      4.43275000     -3.03430000       6
C              -0.13905700     -4.55058000     -3.03430000       6
H              -0.02902120      5.26473000      1.63391000       1
H               0.72677800     -5.15605000      1.88988000       1
H               2.00601000      4.03132000     -3.22837000       1
H              -0.77836800     -4.85047000      2.63916000       1
H               3.82887000     -0.36805900      4.05518000       1
H              -5.13365000     -0.39739800      2.37811000       1
N              -4.31790000     -0.62164500     -3.73906000       7
H               5.11600000      0.97581900     -2.45862000       1
C               5.25927000     -0.10649400     -2.49322000       6
N              -4.87668000      0.18536700      3.20452000       7
H              -4.22697000     -1.65514000     -3.79371000       1
P              -3.98579000     -4.41934000      0.05467710      15
H               1.11869000      3.63659000     -4.58807000       1
N               4.63344000     -0.62164500     -3.73906000       7
H              -3.87398000     -0.19168300     -4.57592000       1
P              -3.91355000      4.56399000      0.05467710      15
H              -1.05818000     -4.98812000     -3.43083000       1
H               1.06693000      4.38247000      4.26432000       1
H               1.93377000     -4.95201000     -3.22837000       1
I              -5.90124000     -1.90737000      0.51513100      53
H               5.74375000      1.08235000      2.28736000       1
H               4.72437000     -1.65514000     -3.79371000       1
C               0.88907700      5.16231000      3.52272000       6
I              -3.27241000      4.33260000      3.22288000      53
H               0.99469300     -4.60086000      4.26432000       1
P               0.34142000     -0.16424300     -6.34777000      15
C               5.52424000      0.51468300      3.19410000       6
H              -5.45838000      1.03881000      3.19179000       1
H               0.03980580      5.46760000     -3.36706000       1
P               0.54788000      0.08046010      6.41158000      15
I              -2.21962000      1.67643000     -5.81926000      53
N               1.01874000     -5.33525000     -3.54937000       7
H              -5.33802000     -0.41357800     -3.74491000       1
H              -5.12247000     -0.36805900      4.05518000       1
I              -3.34465000     -4.65073000      3.22288000      53
P               4.96555000     -4.41934000      0.05467710      15
H               1.83379000      5.59509000      3.18601000       1
I              -1.37072000      6.57993000     -0.21495600      53
I              -1.49410000     -2.74315000     -6.02591000      53
P               5.03780000      4.56399000      0.05467710      15
H               6.32388000     -0.34993900     -2.51521000       1
H               5.07736000     -0.19168300     -4.57592000       1
I               4.39154000     -4.26286000     -3.15128000      53
I               2.48285000     -6.40922000      0.41275200      53
H               6.08879000     -0.42022900      3.20637000       1
I              -6.39625000      2.57411000      0.41275200      53
I              -4.55980000     -4.26286000     -3.15128000      53
I               3.17225000     -1.83115000      5.96280000      53
I              -1.90020000     -6.83169000     -0.34593200      53
I               2.54017000      2.67539000      6.08253000      53
H               1.04645000     -5.34674000     -4.58807000       1
H               0.23868400      5.93700000      3.93450000       1
H               5.75064000      1.10991000      4.08137000       1
H               0.96732300     -6.33119000     -3.25359000       1
I               4.46378000      4.72047000     -3.15128000      53
I              -4.48756000      4.72047000     -3.15128000      53
I              -1.28764000     -2.49845000      6.73344000      53
I               7.12339000      2.15164000     -0.34593200      53
I              -2.01316000      1.92113000      6.94009000      53
I               2.33371000      2.43069000     -6.67682000      53
I               2.96579000     -2.07585000     -6.79654000      53
I               3.12235000      7.07596000      0.51513100      53
I               5.67893000      4.33260000      3.22288000      53
I               7.50838000     -2.40340000     -0.21495600      53
I               5.60669000     -4.65073000      3.22288000      53
P              -8.39614000      0.06198810      0.01933910      15
I              -7.83037000      0.06892430     -3.16416000      53
I              -5.77909000     -1.83115000      5.96280000      53
H              -7.18979000     -3.38824000      3.18601000       1
P              -3.82606000     -4.42913000      6.35604000      15
H              -6.94533000      4.03132000     -3.22837000       1
P              -3.75382000      4.55420000      6.35604000      15
P              -3.96028000      4.30950000     -6.40331000      15
I              -1.42186000      6.24018000     -6.02591000      53
H              -3.27984000     -7.90098000      2.28736000       1
P              -4.03252000     -4.67383000     -6.40331000      15
P               0.48295600     -8.92134000      0.01933910      15
H              -7.91178000      2.65214000     -3.25359000       1
H              -3.66752000      0.05302090      8.18342000       1
I               6.73172000      1.67643000     -5.81926000      53
P               0.62743900      9.04532000      0.01933910      15
I               2.46793000     -6.30794000      6.08253000      53
I              -6.46850000     -6.40922000      0.41275200      53
H               1.32515000      3.88130000      8.17128000       1
H              -7.01758000     -4.95201000     -3.22837000       1
I              -5.82899000      7.07596000      0.51513100      53
P               4.99106000      4.30950000     -6.40331000      15
H              -8.15232000      3.82728000      1.88988000       1
H               3.42072000     -7.94452000      3.19179000       1
I              -6.41117000      2.67539000      6.08253000      53
H              -4.15473000      7.32819000     -3.79371000       1
H              -3.90759000     -8.00751000     -2.45862000       1
P               5.12528000     -4.42913000      6.35604000      15
I              -5.98556000     -2.07585000     -6.79654000      53
P               4.91882000     -4.67383000     -6.40331000      15
I              -8.76655000      0.09268520      3.23431000      53
H              -2.55522000      8.63339000     -2.51521000       1
H              -3.40717000      0.86520400     -8.67797000       1
N              -7.86036000      3.64808000     -3.54937000       7
P               5.19752000      4.55420000      6.35604000      15
H              -0.04001810     -3.29103000     -8.82485000       1
I              -1.21540000      6.48488000      6.73344000      53
H               3.62241000     -0.61276200     -8.70417000       1
H              -3.27295000     -7.87342000      4.08137000       1
I               0.11254800     -8.89064000      3.23431000      53
H               0.86047400      4.13776000     -8.49502000       1
H              -4.10340000      8.39952000     -1.63867000       1
P               9.50654000      0.06198810      0.01933910      15
I               1.04873000     -8.91440000     -3.16416000      53
I              -0.02167140     -0.15201800     -9.52504000      53
H               4.79661000      7.32819000     -3.79371000       1
H               7.96540000      3.99521000     -3.43083000       1
H              -2.79031000      8.56310000      3.20637000       1
H               8.24522000      4.13286000      2.63916000       1
H              -7.11755000      5.59509000      3.18601000       1
I              -2.29187000     -7.30690000     -5.81926000      53
I               2.26147000     -6.55264000     -6.67682000      53
I               0.25703100      9.07601000      3.23431000      53
C              -8.13451000     -3.82102000      3.52272000       6
I               1.19321000      9.05225000     -3.16416000      53
I               1.32743000      0.31362800      9.59519000      53
I               9.13613000      0.09268520      3.23431000      53
C              -3.49935000     -8.46865000      3.19410000       6
I              -6.61763000      2.43069000     -6.67682000      53
H               1.25291000     -5.10203000      8.17128000       1
H               3.88994000      8.58593000      2.37811000       1
H               8.85008000     -3.71860000      1.63391000       1
H               5.28382000      0.05302090      8.18342000       1
H               5.04375000     -8.00751000     -2.45862000       1
H              -7.83265000      3.63659000     -4.58807000       1
H               3.81979000     -0.16887500      9.01443000       1
H               0.78823200     -4.84556000     -8.49502000       1
I               7.05115000     -6.83169000     -0.34593200      53
H               4.84794000      8.39952000     -1.63867000       1
I               3.24449000      7.15218000      5.96280000      53
H               8.17297000     -4.85047000      2.63916000       1
H              -8.22456000     -5.15605000      1.88988000       1
C              -3.61983000      8.87684000     -2.49322000       6
N              -4.11144000     -0.37694100      9.02029000       7
H              -9.05261000     -3.71860000      1.63391000       1
H              -4.02051000     -1.41043000      8.96564000       1
H               0.17402500     -3.27103000      9.39229000       1
H               7.89316000     -4.98812000     -3.43083000       1
I               7.45724000     -2.74315000     -6.02591000      53
H              -7.88441000      4.38247000      4.26432000       1
H               5.67150000     -7.90098000      2.28736000       1
I               6.93818000      1.92113000      6.94009000      53
H               1.24602000      2.89685000      9.50575000       1
H              -2.69970000     -9.33327000     -2.51521000       1
I               7.58062000      6.57993000     -0.21495600      53
H               3.68557000      8.56975000     -3.74491000       1
H              -3.06902000     -0.66493300     -9.55298000       1
N               1.29744000      3.89278000      9.20997000       7
N              -4.24566000      8.36168000     -3.73906000       7
H              -8.78490000     -3.04633000      3.93450000       1
H               8.89286000      4.37977000     -1.94357000       1
C               0.61037500     -4.06573000     -9.23663000       6
I              -2.08540000     -7.06220000      6.94009000      53
H              -7.95665000     -4.60086000      4.26432000       1
N              -8.74771000      4.54735000      2.34944000       7
H               8.82062000     -4.60355000     -1.94357000       1
H               3.28651000      0.79410600     -9.56756000       1
N              -8.81995000     -4.43598000      2.34944000       7
C              -3.76432000     -9.08982000     -2.49322000       6
