200
cutoff_factor=1.20000000 nneightol=1.20000000 Lattice="28.41292000       0.00000000       0.00000000       0.00000000      28.40113000       0.00000000       0.00000000       0.00000000      28.65821000" Properties=species:S:1:pos:R:3:Z:I:1
I              -1.26223000     -0.04455930      1.13058000      53
H               0.24752200      0.88624000     -1.92109000       1
H               0.52487700     -1.52248000     -1.86290000       1
N              -0.04398040      0.31085100     -2.73664000       7
H              -1.06226000      0.11176800     -2.65766000       1
H               0.60942200      2.59539000      1.36794000       1
C               0.74121900     -0.95660700     -2.77169000       6
H               1.80274000     -0.70378300     -2.82255000       1
P               0.57696300     -2.28215000      2.58417000      15
I               3.22425000     -0.84335600      1.53853000      53
H               0.12697500      0.87764400     -3.58826000       1
I               2.30667000      2.71038000     -1.20265000      53
C               0.35626100      3.32096000      2.14394000       6
H               0.44250000     -1.52248000     -3.65639000       1
H              -0.71059200      3.27585000      2.37431000       1
I               0.59924900     -4.12011000     -0.01932680      53
P              -3.94154000      1.39853000     -0.00365300      15
I              -2.07457000      3.47855000     -1.49530000      53
H               0.88921600      2.02373000      3.71499000       1
I              -3.64150000     -0.57824100     -2.57825000      53
N               1.12144000      2.97714000      3.37898000       7
H              -2.69891000     -3.69726000      0.79954300       1
H               0.63874300      4.32893000      1.83260000       1
H              -3.85750000     -2.67033000     -1.06585000       1
H               2.14548000      3.03742000      3.20292000       1
H               3.95947000     -2.95734000      0.17849600       1
P               4.93822000      1.39853000     -0.00365300      15
H              -3.42864000     -0.80858400      3.79613000       1
I               0.41415800     -0.29806000      5.22059000      53
H              -2.27036000     -0.07540650      4.75682000       1
H              -3.50112000      0.84760400      4.06442000       1
C              -3.30603000     -4.31072000      0.13157000       6
H              -2.68161000     -4.75265000     -0.64686600       1
N              -4.31309000     -3.43068000     -0.52256900       7
N              -3.27865000     -0.06590280      4.50752000       7
I              -2.10035000     -3.64668000      3.67137000      53
H               0.88687800      3.64471000      4.14010000       1
P               0.50860800      4.98375000     -2.58031000      15
H               3.97598000     -3.95310000     -1.20207000       1
N               4.56667000     -3.43068000     -0.52256900       7
H              -4.92029000     -2.95734000      0.17849600       1
H               5.02227000     -2.67033000     -1.06585000       1
I              -4.12325000      3.12420000      2.71834000      53
I               5.23826000     -0.57824100     -2.57825000      53
I              -5.65552000     -0.84335600      1.53853000      53
I              -1.22625000     -3.94532000     -4.28659000      53
I               0.42373100      3.09602000     -5.27513000      53
H              -3.86298000      2.11321000     -4.36640000       1
I               4.75651000      3.12420000      2.71834000      53
H              -3.83164000     -5.08721000      0.69189600       1
H              -4.90378000     -3.95310000     -1.20207000       1
I               2.32968000     -4.35688000      4.26755000      53
H               3.69724000     -0.30105700      5.39066000       1
P               0.54862800     -5.98992000     -2.58031000      15
I               3.17236000     -4.49574000     -3.63509000      53
H               5.45112000     -0.80858400      3.79613000       1
I               2.33926000     -0.96279700     -6.22817000      53
H               5.37864000      0.84760400      4.06442000       1
H              -2.72163000      6.22102000     -0.64686600       1
H              -3.94123000      3.88035000     -4.06407000       1
I               0.55922800      6.85356000     -0.01932680      53
H               0.67876300     -6.64475000      1.83260000       1
P              -3.83843000     -2.37980000     -5.28571000      15
H               5.01679000      2.11321000     -4.36640000       1
H              -2.26078000      3.31867000     -5.73890000       1
H               3.70682000      3.09302000     -5.10506000       1
C              -4.12732000      3.08496000     -4.78930000       6
C               5.57374000     -4.31072000      0.13157000       6
C              -4.13689000     -0.30911900      5.70642000       6
H              -3.87166000      5.88647000      0.69189600       1
I              -2.09078000     -0.25259900     -6.82435000      53
N               5.60111000     -0.06590280      4.50752000       7
H               5.04812000     -5.08721000      0.69189600       1
I              -6.57309000      2.71038000     -1.20265000      53
H               6.18085000     -3.69726000      0.79954300       1
I              -1.27584000      3.63427000      6.20913000      53
H               0.11740300     -2.51644000      6.90746000       1
H              -3.87255000     -1.28087000      6.12932000       1
C               4.75244000      3.08496000     -4.78930000       6
C               4.74287000     -0.30911900      5.70642000       6
C              -3.34605000      6.66296000      0.13157000       6
H               4.93853000      3.88035000     -4.06407000       1
H              -5.18252000     -0.30105700      5.39066000       1
H               0.93647100     -3.93488000     -6.35562000       1
H              -3.95080000      0.48626500      6.43165000       1
N              -3.26908000      3.32818000     -5.98820000       7
H              -7.07702000     -0.70378300     -2.82255000       1
P               5.04133000     -2.37980000     -5.28571000      15
I               7.61753000     -0.04455930      1.13058000      53
H               5.00810000      5.88647000      0.69189600       1
I               6.80519000      3.47855000     -1.49530000      53
H              -2.73893000      7.27641000      0.79954300       1
H               6.19815000     -4.75265000     -0.64686600       1
H              -5.17295000      3.09302000     -5.10506000       1
I              -2.03455000     -7.49513000     -1.49530000      53
H              -3.41907000      2.58550000     -6.69959000       1
C               0.39628100     -7.65272000      2.14394000       6
P               0.58653500      1.11193000     -7.91155000      15
H               5.00721000     -1.28087000      6.12932000       1
H              -6.73429000      3.03742000      3.20292000       1
I               3.13234000      6.47794000     -3.63509000      53
H              -0.67057100     -7.69783000      2.37431000       1
P               0.49903500      1.58967000      7.91541000      15
H               4.92896000      0.48626500      6.43165000       1
I              -5.70740000     -4.49574000     -3.63509000      53
H               3.93596000      7.02058000     -1.20207000       1
H               6.60941000     -0.07540650      4.75682000       1
I               3.12277000      3.08385000      6.86063000      53
I               2.28966000      6.61680000      4.26755000      53
H               7.81750000      0.11176800     -2.65766000       1
P              -3.88802000      5.19980000      5.21001000      15
I              -1.26627000      7.02835000     -4.28659000      53
N              -0.05355300     -3.08323000      7.75908000       7
H               0.43292700     -4.91656000      6.83933000       1
H              -3.49155000      4.24168000     -6.43130000       1
H               0.92689800     -7.32896000      4.14010000       1
I              -2.14037000      7.32699000      3.67137000      53
H               0.64944300     -8.37829000      1.36794000       1
I               6.77941000     -3.64668000      3.67137000      53
N               1.17103000     -4.60246000     -7.11674000       7
H              -1.07183000     -3.28231000      7.83806000       1
C              -8.13854000     -0.95660700     -2.77169000       6
C               5.53372000      6.66296000      0.13157000       6
H              -4.94380000      7.02058000     -1.20207000       1
I               2.34670000     -8.26329000     -1.20265000      53
P              -3.84800000     -5.77388000      5.21001000      15
H              -8.35489000     -1.52248000     -1.86290000       1
N              -4.35311000      7.54299000     -0.52256900       7
H               0.89878900      5.41781000     -6.78073000       1
N               1.16146000     -7.99654000      3.37898000       7
H              -8.27034000      2.59539000      1.36794000       1
H               6.15813000      6.22102000     -0.64686600       1
N               4.52665000      7.54299000     -0.52256900       7
H               0.93880900     -5.55586000     -6.78073000       1
H               2.18550000     -7.93626000      3.20292000       1
N               5.61069000      3.32818000     -5.98820000       7
H               2.19507000     -4.54218000     -7.29280000       1
H               1.79317000     -4.09786000      7.67317000       1
H              -8.63224000      0.88624000     -1.92109000       1
P               4.99174000      5.19980000      5.21001000      15
C               0.73164700     -4.35069000      7.72403000       6
H               3.91945000      8.01633000      0.17849600       1
H               0.23795000     -2.50784000      8.57463000       1
I              -6.55008000     -4.35688000      4.26755000      53
N              -7.75832000      2.97714000      3.37898000       7
P              -8.30280000     -2.28215000      2.58417000      15
H               5.46070000      2.58550000     -6.69959000       1
H              -7.99055000      2.02373000      3.71499000       1
H              -3.90121000     -7.09333000     -4.06407000       1
I              -6.54051000     -0.96279700     -6.22817000      53
P               0.53694200      8.69152000      2.58417000      15
H               8.16917000      3.27585000      2.37431000       1
H               0.39290700      6.05711000      6.83933000       1
H              -0.66099800     -4.30375000     -8.12141000       1
H              -3.89752000      8.30335000     -1.06585000       1
I              -2.08414000      0.08446700      9.00042000      53
I              -8.28051000     -4.12011000     -0.01932680      53
N               8.83578000      0.31085100     -2.73664000       7
I              -4.08323000     -7.84948000      2.71834000      53
P               5.03176000     -5.77388000      5.21001000      15
H               0.68833600     -3.25067000     -8.66312000       1
H              -8.43726000     -1.52248000     -3.65639000       1
N              -8.92374000      0.31085100     -2.73664000       7
H               6.61898000      3.31867000     -5.73890000       1
H               9.12728000      0.88624000     -1.92109000       1
C               0.40585400     -4.25864000     -8.35178000       6
I              -5.74742000      6.47794000     -3.63509000      53
C              -8.52350000      3.32096000      2.14394000       6
H               5.38821000      4.24168000     -6.43130000       1
H              -4.96031000      8.01633000      0.17849600       1
I              -5.75699000      3.08385000      6.86063000      53
H              -8.24102000      4.32893000      1.83260000       1
I               0.46375200     -7.87765000     -5.27513000      53
H              -8.75279000      0.87764400     -3.58826000       1
H               0.89645000      7.03879000     -6.35562000       1
H               6.14083000      7.27641000      0.79954300       1
H               4.97855000     -7.09333000     -4.06407000       1
I              -3.65107000     -3.97232000      7.91747000      53
I               4.79653000     -7.84948000      2.71834000      53
I               2.29710000     -0.68369600      9.29307000      53
I               7.65351000     -3.94532000     -4.28659000      53
N               1.13101000      6.37122000     -7.11674000       7
I               6.78898000     -0.25259900     -6.82435000      53
H               0.48485600      9.45119000     -1.86290000       1
I              -1.23582000     -7.33940000      6.20913000      53
H               9.40464000     -1.52248000     -1.86290000       1
H              -7.99288000      3.64471000      4.14010000       1
H               0.92923700     -8.94994000      3.71499000       1
H               9.00674000      0.87764400     -3.58826000       1
H               4.98225000      8.30335000     -1.06585000       1
H              -2.22076000     -7.65500000     -5.73890000       1
I              -4.07366000     -4.45540000     -7.77738000      53
I               3.23382000      2.55072000     -8.95719000      53
H              -3.45153000     -6.73199000     -6.43130000       1
H               9.48918000      2.59539000      1.36794000       1
H               0.51530400     -4.91656000      8.63282000       1
I              -8.46560000     -0.29806000      5.22059000      53
H               2.15505000      6.43150000     -7.29280000       1
I              -1.25266000      3.34952000     -9.36514000      53
C               9.23602000      3.32096000      2.14394000       6
