200
cutoff_factor=1.20000000 nneightol=1.20000000 Lattice="29.09775000       0.00000000       0.00000000       0.00000000      29.61871000       0.00000000       0.00000000       0.00000000      29.00975000" Properties=species:S:1:pos:R:3:Z:I:1
I               1.14774000     -1.03076000      0.89811400      53
P              -1.52157000      0.50660200      1.92226000      15
H               2.78661000      0.25052700     -0.39403400       1
I              -2.88853000      0.01443990     -0.93005800      53
I              -0.24229600      3.39228000      0.88499700      53
H               2.30733000      2.64223000     -0.46856900       1
N               3.42633000      0.91361200     -0.89355700       7
H               3.17622000      0.93117100     -1.91094000       1
H              -0.71376600      3.43861000     -1.61127000       1
H              -0.02513020      1.91702000     -3.35634000       1
H              -1.80058000      1.82020000     -3.13311000       1
C               3.32824000      2.28352000     -0.32626000       6
H               3.57432000      2.23654000      0.73621600       1
C              -0.97161100      2.44879000     -3.46398000       6
P               0.29150500     -4.03031000      1.73786000      15
I              -2.37779000     -2.49295000      2.76201000      53
P              -2.54571000     -2.34545000     -2.86060000      15
H               4.40674000      0.56720600     -0.82034600       1
N              -0.93002400      3.66723000     -2.60367000       7
I              -0.93749200     -4.35397000     -1.22109000      53
I              -0.29256600      0.83025900      4.88122000      53
H               4.03434000      2.92315000     -0.85746000       1
H               1.95102000      3.77271000      2.92391000       1
H              -1.85274000      4.14670000     -2.59533000       1
I               2.70043000      1.41705000     -4.25631000      53
H              -0.19878000      4.34091000     -2.93405000       1
H              -5.30045000      0.56720600     -0.82034600       1
H              -1.11899000      2.75888000     -4.50023000       1
I              -3.93956000      2.61695000      2.77513000      53
I              -1.50736000     -0.83449800     -5.25980000      53
H               1.49098000      3.08609000      4.51758000       1
C               2.19709000      3.72572000      3.98639000       6
H               2.31206000     -2.17633000     -5.01588000       1
I               1.65847000     -3.53816000      4.59019000      53
H               1.09906000     -5.38625000     -2.59533000       1
H               3.21800000      3.36701000      4.12870000       1
P              -2.66030000      5.50264000      1.73786000      15
N              -6.28086000      0.91361200     -0.89355700       7
H               1.21820000     -1.33447000     -6.15978000       1
H              -5.67285000      2.92315000     -0.85746000       1
H               2.75302000     -5.19204000     -2.93405000       1
H              -6.13287000      2.23654000      0.73621600       1
I              -3.88929000      5.17898000     -1.22109000      53
H               2.23804000     -6.09434000     -1.61127000       1
C               2.16468000     -1.86624000     -6.05214000       6
N               2.02178000     -5.86573000     -2.60367000       7
P               1.31564000     -1.17827000      6.52072000      15
I               2.70951000     -6.14067000      0.88499700      53
C              -6.37895000      2.28352000     -0.32626000       6
H              -3.46810000      2.57062000      5.27139000       1
I               4.52977000     -3.62111000     -3.60895000      53
H              -4.01666000     -3.77424000      4.05416000       1
H              -6.53097000      0.93117100     -1.91094000       1
I               6.81866000      0.01443990     -0.93005800      53
I               5.76763000      2.61695000      2.77513000      53
H              -2.32912000      1.86254000      6.25546000       1
H              -6.92059000      0.25052700     -0.39403400       1
I               1.57797000      5.91184000     -3.60895000      53
H               1.11859000      5.44203000      4.48047000       1
N               2.09900000      5.09563000      4.55368000       7
H               2.99365000     -1.23765000     -6.38300000       1
H              -2.72104000     -6.60980000     -0.85746000       1
I              -5.17742000     -3.62111000     -3.60895000      53
H               4.07039000     -4.09092000      4.48047000       1
N              -3.25184000      2.34201000      6.26380000       7
I              -0.98775700     -6.91600000      2.77513000      53
H               2.73872000      5.75871000      4.05416000       1
I              -1.29333000      5.99479000      4.59019000      53
H               1.39185000     -3.75836000     -6.58207000       1
N               2.12310000     -3.08468000     -6.91244000       7
H              -1.98315000     -0.34861700     -7.60517000       1
H              -7.39987000      2.64223000     -0.46856900       1
N              -4.65639000     -4.43732000      4.55368000       7
H              -3.98309000      1.66832000      6.59417000       1
I               5.81790000      5.17898000     -1.22109000      53
H               2.34910000      5.07807000      5.57107000       1
H               5.69053000     -3.77424000      4.05416000       1
I              -0.38489700     -5.32929000     -5.90717000      53
I              -3.33670000      4.20366000     -5.90717000      53
H              -3.18107000     -7.29642000      0.73621600       1
C              -3.42714000     -7.24943000     -0.32626000       6
H              -4.80437000     -5.76025000      2.92391000       1
P               7.16148000     -2.34545000     -2.86060000      15
H               4.90282000     -5.76025000      2.92391000       1
N               5.05080000     -4.43732000      4.55368000       7
C               1.98019000     -7.08417000     -3.46398000       6
P               3.73878000      2.92800000     -6.65552000      15
H              -4.44806000     -6.89072000     -0.46856900       1
I               7.32940000     -2.49295000      2.76201000      53
H              -3.53738000     -6.16594000      4.12870000       1
I               3.94735000      0.09739230      7.26907000      53
H              -5.63680000     -4.09092000      4.48047000       1
I              -7.00676000      1.41705000     -4.25631000      53
H              -2.38129000      4.18903000      6.79324000       1
H               1.83281000     -6.77407000     -4.50023000       1
H               3.04582000     -3.56415000     -6.92078000       1
H              -4.40628000     -4.45488000      5.57107000       1
C              -4.55830000     -5.80724000      3.98639000       6
H              -6.48919000      3.36701000      4.12870000       1
H               1.15122000     -7.71275000     -3.13311000       1
P               8.18562000      0.50660200      1.92226000      15
H               6.23909000      2.57062000      5.27139000       1
C              -3.21026000      3.56045000      7.12410000       6
H               1.90684000     -2.85607000     -7.90485000       1
H               0.57051400     -5.34392000      6.79324000       1
I              -8.55945000     -1.03076000      0.89811400      53
H               5.25913000     -6.89072000     -0.46856900       1
H               7.90661000      1.82020000     -3.13311000       1
C               5.14889000     -5.80724000      3.98639000       6
I              -1.80406000      8.50219000      0.89811400      53
I               4.37759000      7.04000000      2.76201000      53
H              -0.51629600     -6.96233000      5.27139000       1
P               4.20968000      7.18750000     -2.86060000      15
H               2.92667000     -7.61594000     -3.35634000       1
H               5.30091000     -4.45488000      5.57107000       1
H               5.72410000      1.66832000      6.59417000       1
H              -1.55995000      5.77459000     -6.58207000       1
N              -2.23325000     -0.33105700     -8.62256000       7
H              -0.63974100      7.35662000     -5.01588000       1
H              -1.20494000     -5.44074000      7.01646000       1
H               4.44279000     -6.44686000      4.51758000       1
H              -7.75617000      3.77271000      2.92391000       1
P               7.04689000      5.50264000      1.73786000      15
H              -4.15674000      4.09221000      7.01646000       1
H               0.09401270      5.96880000     -6.92078000       1
H              -6.95417000     -5.19204000     -2.93405000       1
H              -7.39513000     -2.17633000     -5.01588000       1
I              -5.32960000      7.04000000      2.76201000      53
H               7.85445000      4.14670000     -2.59533000       1
H              -1.59353000      0.33202900     -9.12208000       1
H              -3.21366000      0.01534680     -8.69577000       1
I              -5.75984000      0.09739230      7.26907000      53
C              -7.51010000      3.72572000      3.98639000       6
N              -3.32906000     -8.61934000     -0.89355700       7
N               6.45535000      2.34201000      6.26380000       7
C              -0.25845700     -5.97250000      7.12410000       6
H              -3.06288000      3.25035000      8.16036000       1
H              -2.34865000     -8.96575000     -0.82034600       1
I               0.27729300     -2.68922000      8.91993000      53
P               1.43023000     -9.02635000      1.92226000      15
H              -1.11425000     -2.05967000     -9.04754000       1
H              -6.71354000     -1.23765000     -6.38300000       1
I              -6.99768000     -6.14067000      0.88499700      53
P              -5.96841000      2.92800000     -6.65552000      15
H              -2.84127000     -2.34060000     -8.65866000       1
H              -3.54213000     -1.34738000      8.67601000       1
H              -5.26440000     -6.44686000      4.51758000       1
N              -0.82870500      6.44827000     -6.91244000       7
P              -5.49751000      7.18750000     -2.86060000      15
H              -3.57917000     -8.60178000     -1.91094000       1
I               4.08161000      0.56811000     -8.58605000      53
N              -0.30004000     -7.19094000      6.26380000       7
I               0.06327090     -9.51851000     -0.93005800      53
I               2.82490000      4.59219000      7.91644000      53
C              -2.13516000     -1.70097000     -9.18985000       6
C               6.28005000     -7.24943000     -0.32626000       6
H               6.16981000     -6.16594000      4.12870000       1
I               6.37049000      4.20366000     -5.90717000      53
H               6.98615000     -6.60980000     -0.85746000       1
C               8.73558000      2.44879000     -3.46398000       6
H               8.99342000      3.43861000     -1.61127000       1
I              -0.84516600      1.80557000      9.56729000      53
H              -7.46915000     -6.09434000     -1.61127000       1
I               8.19983000     -0.83449800     -5.25980000      53
H              -0.16519700      9.78348000     -0.39403400       1
C              -0.78712200      7.66671000     -6.05214000       6
H               6.52612000     -7.29642000      0.73621600       1
H               5.55045000      4.09221000      7.01646000       1
C              -7.54251000     -1.86624000     -6.05214000       6
P              -3.01661000     -6.60495000     -6.65552000      15
H               7.37807000      1.86254000      6.25546000       1
N               8.77717000      3.66723000     -2.60367000       7
I               8.76970000     -4.35397000     -1.22109000      53
H              -8.21621000      3.08609000      4.51758000       1
I               2.13057000      4.93653000     -8.29502000      53
H              -6.96847000      5.75871000      4.05416000       1
H               0.62267800     -7.67041000      6.25546000       1
I              -8.04872000     -3.53816000      4.59019000      53
N              -7.68541000     -5.86573000     -2.60367000       7
I              -4.05496000     -8.11590000     -4.25631000      53
H               8.58820000      2.75888000     -4.50023000       1
I               9.46489000      3.39228000      0.88499700      53
H              -3.96878000     -9.28242000     -0.39403400       1
I              -3.93049000     -4.94076000      7.91644000      53
N              -7.60819000      5.09563000      4.55368000       7
H               1.45494000     10.10020000     -0.82034600       1
H              -6.66138000     -3.56415000     -6.92078000       1
C               6.49693000      3.56045000      7.12410000       6
I              -5.62558000      0.56811000     -8.58605000      53
H              -0.11107600     -6.28260000      8.16036000       1
H              -1.03128000     -7.86463000      6.59417000       1
I               2.65924000     -8.70269000      4.88122000      53
I               3.86686000      9.54739000     -0.93005800      53
H              -2.44827000     -2.18925000      9.81990000       1
P              -9.41569000     -4.03031000      1.73786000      15
H              -1.04496000      6.67688000     -7.90485000       1
H              -1.73360000      8.19848000     -6.15978000       1
C              -3.39475000     -1.65748000      9.71226000       6
H               9.68206000      1.91702000     -3.35634000       1
H               0.04184890      8.29530000     -6.38300000       1
