200
cutoff_factor=1.20000000 nneightol=1.20000000 Lattice="28.85959000       0.00000000       0.00000000       0.00000000      28.78236000       0.00000000       0.00000000       0.00000000      28.18048000" Properties=species:S:1:pos:R:3:Z:I:1
I              -1.82988000     -1.33201000      0.39737700      53
H               1.35736000      0.57595900      1.89022000       1
I               2.24247000      0.26763000     -1.15703000      53
H              -1.73146000      1.60820000     -1.31150000       1
H              -0.08194530      2.24850000     -1.61550000       1
P               0.41975800     -2.29546000     -1.62885000      15
C              -1.10569000      2.50343000     -1.33353000       6
H              -1.12084000      3.00541000     -0.36388000       1
C               1.89656000      0.05618660      2.68516000       6
H               2.30600000     -0.88655600      2.31544000       1
H               1.23989000     -0.12070800      3.53989000       1
I              -0.94031400      2.55303000      2.65504000      53
P              -3.10170000      0.29677700      2.85302000      15
I               1.96213000     -3.74870000      0.78826700      53
H              -1.70830000     -3.66011000      1.66610000       1
I              -1.03268000     -1.03770000     -4.15291000      53
N               3.03029000      0.92138200      3.13168000       7
N              -1.65614000      3.44171000     -2.35757000       7
H               3.69184000      1.12556000      2.35451000       1
H               4.45871000     -1.29489000     -1.00239000       1
H              -1.66254000      3.02667000     -3.31135000       1
H               2.68870000      1.82796000      3.51259000       1
H              -4.21465000     -1.36295000     -1.85428000       1
H              -2.63320000      3.72852000     -2.14018000       1
H              -1.10109000      4.31666000     -2.42080000       1
I              -1.36151000     -1.43950000      4.87146000      53
P               4.09126000      2.85239000     -1.68903000      15
H               3.55763000      0.44730300      3.88132000       1
I               2.42291000      4.69971000      0.38619800      53
N              -1.70144000     -4.67956000      1.87457000       7
H               1.60762000      0.75143400     -5.02078000       1
H              -1.03332000     -5.12654000      1.22557000       1
H               4.48716000     -2.94948000     -0.75068300       1
H              -4.23087000     -3.13877000     -1.60069000       1
N               5.07878000     -2.10138000     -0.79129000       7
I              -5.14774000      1.88267000      0.92819300      53
I              -1.15399000     -5.10544000     -2.07297000      53
C              -4.83491000     -2.26196000     -1.84487000       6
H              -0.30384600     -4.52324000      3.45009000       1
I               2.67702000     -3.55384000     -3.57202000      53
H              -5.46258000     -1.97148000      0.14660800       1
H               5.50005000     -1.97148000      0.14660800       1
H              -2.64873000     -5.05574000      1.66448000       1
I               2.27241000      3.76974000     -4.09898000      53
H               2.33898000     -0.81103700     -5.51516000       1
C              -1.30083000     -4.94034000      3.29081000       6
P               0.42854900      5.38919000      2.87943000      15
C               2.33309000      0.26889800     -5.67963000       6
I               5.81489000      1.88267000      0.92819300      53
I              -5.03178000      1.08621000     -3.59685000      53
H              -2.02630000     -4.45780000      3.94967000       1
N              -5.88385000     -2.10138000     -0.79129000       7
H              -1.02859000     -3.34036000     -5.45785000       1
H               3.33007000      0.68599800     -5.52036000       1
H              -5.33007000     -2.39453000     -2.80954000       1
I              -5.43654000     -2.05805000      2.98962000      53
I               5.52608000     -2.05805000      2.98962000      53
H              -6.50392000     -1.29489000     -1.00239000       1
H               5.63256000     -2.39453000     -2.80954000       1
C               6.12771000     -2.26196000     -1.84487000       6
I              -1.64929000      6.62887000      0.78826700      53
I               2.68461000      4.13062000      4.81753000      53
P              -3.28874000      0.22086600     -6.09101000      15
H              -0.15966500     -4.72102000     -5.08912000       1
H              -1.61278000      2.77379000      6.16090000       1
H               2.51032000     -6.06091000     -2.42080000       1
I              -1.80262000      3.15119000     -5.98083000      53
I               5.93085000      1.08621000     -3.59685000      53
P               4.03996000     -4.98837000      2.87943000      15
H               0.97821700     -6.64904000     -2.14018000       1
H              -1.29494000     -6.02027000      3.45529000       1
H              -4.64473000      5.25102000      1.22557000       1
H               6.74797000     -1.36295000     -1.85428000       1
I               2.29693000     -4.12303000      5.37359000      53
H              -6.47547000     -2.94948000     -0.75068300       1
N              -0.68700300     -4.24694000     -5.83877000       7
I              -4.56832000      1.61448000      5.39842000      53
H               4.70248000      5.32182000      1.66448000       1
I               2.56330000      0.06288480      6.89747000      53
N               1.93248000      0.52967500     -7.09588000       7
H               0.98519000      0.15350000     -7.30596000       1
I              -4.76540000      5.27212000     -2.07297000      53
H              -4.90635000      4.35729000      3.45529000       1
H               0.87574000      7.42808000     -0.75068300       1
I              -4.92830000     -5.67786000      0.38619800      53
N               1.95527000     -6.93585000     -2.35757000       7
H               6.73175000     -3.13877000     -1.60069000       1
P              -6.87137000      2.85239000     -1.68903000      15
H              -0.51358400      2.02955000      7.36975000       1
P               0.45734000     -2.35684000      7.28141000      15
H               1.92562000      1.54912000     -7.30434000       1
H              -7.27078000      1.12556000      2.35451000       1
H              -0.02544660     -4.04277000     -6.61593000       1
I              -0.93439500      6.82372000     -3.57202000      53
C              -1.11762000      2.90636000      7.12557000       6
H               2.49058000     -7.37215000     -0.36388000       1
H              -3.91526000      5.85432000      3.45009000       1
H              -2.47740000     -5.28903000     -5.43055000       1
N              -5.31286000      5.69800000      1.87457000       7
C              -4.91225000      5.43722000      3.29081000       6
H               3.12034000      7.23879000     -1.60069000       1
H              -5.29646000     -2.18257000      5.65909000       1
H              -0.49736300      3.80538000      7.11616000       1
H              -4.73501000     -0.89258200      6.54964000       1
H               2.60060000      0.08269990     -7.74487000       1
H               6.05628000      4.35729000      3.45529000       1
N               5.64977000      5.69800000      1.87457000       7
P               0.53222300      5.50602000     -6.11742000      15
I              -4.65760000     -2.61530000     -6.31540000      53
H               1.94887000     -7.35089000     -3.31135000       1
I               6.03433000     -5.67786000      0.38619800      53
H               5.66616000     -2.18257000      5.65909000       1
C              -1.82073000     -5.11214000     -6.28529000       6
H               6.31789000      5.25102000      1.22557000       1
I              -1.31449000      6.25454000      5.37359000      53
P               7.86093000      0.29677700      2.85302000      15
C               2.50573000     -7.87413000     -1.33353000       6
H              -7.40500000      0.44730300      3.88132000       1
P              -3.25995000     -7.52517000     -1.68903000      15
H              -6.26015000      5.32182000      1.66448000       1
I               6.19722000      5.27212000     -2.07297000      53
H               4.69551000     -1.48071000      6.83026000       1
N               1.46736000      8.27618000     -0.79129000       7
H              -3.77108000      5.65654000     -5.08912000       1
I               6.39431000      1.61448000      5.39842000      53
N              -7.93234000      0.92138200      3.13168000       7
H               1.88863000      8.40608000      0.14660800       1
N              -5.29006000     -1.76753000      6.61288000       7
I              -1.53632000     -8.49489000      0.92819300      53
I               2.67110000     -7.82453000      2.65504000      53
I              -1.29438000     -0.46861800     -8.58425000      53
C               2.51630000      8.11560000     -1.84487000       6
H               2.02114000      7.98303000     -2.80954000       1
H              -5.31971000      6.71745000      1.66610000       1
H              -3.71587000     -2.96073000      7.35495000       1
H              -2.35993000     -4.59236000     -7.08022000       1
C               6.05038000      5.43722000      3.29081000       6
I              -8.72016000      0.26763000     -1.15703000      53
P              -3.19166000      8.08210000     -1.62885000      15
P               4.14364000     -4.87155000     -6.11742000      15
H               5.32491000      5.91976000      3.94967000       1
N               5.67257000     -1.76753000      6.61288000       7
H               4.87381000      5.08853000     -5.43055000       1
P               4.13705000      2.87287000      7.34160000      15
H               5.64291000      6.71745000      1.66610000       1
I               2.09760000     -3.28565000     -8.04225000      53
H              -2.75818000      2.21884000      8.21976000       1
N              -2.16656000      3.06694000      8.17915000       7
H              -8.65663000     -0.88655600      2.31544000       1
P              -6.92266000     -4.98837000      2.87943000      15
H               3.52947000     -8.12906000     -1.61550000       1
I               1.91467000      8.31951000      2.98962000      53
H               1.87996000     -8.76936000     -1.31150000       1
H              -5.63771000      5.91976000      3.94967000       1
H               6.22761000     -0.89258200      6.54964000       1
H              -1.41129000     -6.05488000     -6.65501000       1
I              -4.66660000     -6.24694000      4.81753000      53
H              -8.27392000      1.82796000      3.51259000       1
H               0.84729500      9.08267000     -1.00239000       1
I               9.13275000     -1.33201000      0.39737700      53
H              -2.78663000      3.87343000      7.96805000       1
I              -5.07880000     -6.60782000     -4.09898000      53
I               6.30502000     -2.61530000     -6.31540000      53
I              -1.39146000     -4.94161000      7.81342000      53
H               8.32943000      3.72852000     -2.14018000       1
C              -4.73961000     -2.70581000      7.63691000       6
H              -6.26712000     -1.48071000      6.83026000       1
H              -5.02270000      4.32268000     -6.65501000       1
H              -7.63255000      0.68599800     -5.52036000       1
I              -1.21101000     -0.50953200      9.35664000      53
C              -9.06607000      0.05618660      2.68516000       6
H               9.23117000      1.60820000     -1.31150000       1
N              -4.29842000      6.13062000     -5.83877000       7
I               1.80879000     -7.22637000     -5.98083000      53
H              -1.82866000      3.23776000     -8.82384000       1
I               1.80404000      3.87723000     -8.57307000      53
H              -6.08882000      5.08853000     -5.43055000       1
I              -8.28561000     -3.55384000     -3.57202000      53
H               3.13656000      9.01462000     -1.85428000       1
I               5.88382000     -6.60782000     -4.09898000      53
I              -8.53971000      4.69971000      0.38619800      53
I              -9.00050000     -3.74870000      0.78826700      53
H               7.04736000      5.85432000      3.45009000       1
P               7.67388000      0.22086600     -6.09101000      15
H              -9.60526000      0.57595900      1.89022000       1
H              -1.74529000      3.19684000      9.11705000       1
C              -5.43215000      5.26542000     -6.28529000       6
H              -3.63686000      6.33479000     -6.61593000       1
H              -1.30541000      9.49101000      2.31544000       1
H               8.31390000     -5.05574000      1.66448000       1
C               5.53048000      5.26542000     -6.28529000       6
I              -5.36658000      1.46054000     -8.18218000      53
H               5.93992000      4.32268000     -6.65501000       1
H               1.99864000     -7.60377000      6.16090000       1
I               5.59605000      1.46054000     -8.18218000      53
H              -5.36538000     -3.60104000      7.65894000       1
H              -4.64000000      7.03720000     -5.45785000       1
I              -1.42036000     -9.29135000     -3.59685000      53
H              -4.75476000     -2.20383000      8.60656000       1
H               9.25433000     -3.66011000      1.66610000       1
