200
cutoff_factor=1.20000000 nneightol=1.20000000 Lattice="28.59648000       0.00000000       0.00000000       0.00000000      28.33892000       0.00000000       0.00000000       0.00000000      28.79620000" Properties=species:S:1:pos:R:3:Z:I:1
H               0.03533160      0.55781700      0.94005100       1
N               1.03274000      0.39147000      1.19512000       7
C               1.77657000     -0.28018600      0.09856780       6
H               1.33005000     -1.26121000     -0.07887510       1
H               1.70360000      0.34428100     -0.79365600       1
H               1.06223000     -0.14615100      2.08836000       1
H               1.42580000      1.32839000      1.41102000       1
I              -2.08733000      1.81201000      0.52632700      53
H               2.81904000     -0.37937400      0.40554400       1
H              -2.27471000      1.88360000     -2.28490000       1
I               1.18666000     -0.48735000     -3.56527000      53
I              -2.77152000     -1.95196000     -1.83107000      53
I               1.22617000      3.75670000     -1.84133000      53
I              -2.67486000     -2.06951000      2.80035000      53
P              -4.32340000     -0.54282000      0.55936700      15
I               1.46959000      3.63602000      2.67046000      53
I               1.12357000     -0.43010000      4.59739000      53
N              -2.87073000      2.28419000     -3.03271000       7
P              -0.71073800      4.79508000      0.58634800      15
H              -2.05099000      1.17293000      4.28233000       1
P              -0.66969000     -3.04896000     -3.89469000      15
H              -2.48564000     -4.46307000     -0.04684710       1
I               0.95132600     -4.73518000     -1.73299000      53
H              -2.44118000      0.80291100     -4.47349000       1
H              -3.84037000      1.95399000     -2.83869000       1
H              -1.38822000      2.25409000     -4.53520000       1
H              -2.86827000      3.31662000     -2.88971000       1
I               4.45230000     -2.77736000      0.55557300      53
H               3.79680000     -2.49097000     -2.80131000       1
C              -2.40933000      1.89199000     -4.39914000       6
I               5.01019000      1.17246000     -1.66819000      53
P               2.99806000      2.11374000     -3.99093000      15
I               1.00019000     -4.72262000      2.88958000      53
H               3.75770000      4.43976000     -0.08795010       1
N              -2.83955000      1.31842000      4.92688000       7
H              -1.23863000     -5.43898000      1.79960000       1
H              -3.72851000      1.24500000      4.38485000       1
P              -0.66904900     -3.03204000      5.09390000      15
I               5.15649000      1.15388000      2.90599000      53
C              -2.51072000     -5.54270000      0.11549800       6
H              -1.76769000     -6.04114000     -0.51105900       1
H              -2.82163000      0.54099700      5.62527000       1
I              -5.99675000      1.17246000     -1.66819000      53
P               2.92952000      2.18227000      5.19013000      15
C               4.66005000     -2.59365000     -3.46289000       6
P               3.02988000     -5.58192000      0.58634800      15
N              -2.17964000     -5.81148000      1.54745000       7
H              -3.07796000      2.34554000     -5.13450000       1
H               5.07835000      3.54783000      1.76593000       1
H               4.26186000     -2.80024000      3.95032000       1
H              -2.86970000     -5.35652000      2.16902000       1
I              -2.78929000      5.64182000     -1.73299000      53
H               4.65949000     -1.80411000     -4.21636000       1
H              -2.74824000      3.42711000      4.86847000       1
I              -5.85044000      1.15388000      2.90599000      53
H              -5.42132000     -2.57218000     -2.88571000       1
H               0.84547600      5.68677000     -3.45955000       1
P               6.68353000     -0.54282000      0.55936700      15
C               4.75560000      4.83430000      0.11549800       6
C              -2.74768000      2.63757000      5.62194000       6
H               5.58562000     -2.57218000     -2.88571000       1
H              -3.50862000     -5.93724000     -0.08795010       1
I              -2.74043000      5.65438000      2.88958000      53
I              -2.12962000     -1.59521000     -6.41436000      53
H               0.79741200     -0.21074400     -6.91581000       1
H              -1.82211000      2.65904000      6.19912000       1
N               5.08668000      4.56552000      1.54745000       7
H               4.39662000      5.02048000      2.16902000       1
H               5.49863000      4.33586000     -0.51105900       1
H              -5.50831000      4.33586000     -0.51105900       1
I               0.99225400      3.07626000     -6.28447000      53
H              -5.92858000      3.54783000      1.76593000       1
I              -6.55464000     -2.77736000      0.55557300      53
H               3.67921000     -3.98623000     -4.69997000       1
H              -4.97924000      4.93802000      1.79960000       1
N               4.56818000     -3.91281000     -4.15794000       7
H              -2.18797000     -6.82917000      1.76593000       1
H              -5.05533000     -2.89169000      4.54962000       1
H               4.58609000     -4.69023000     -3.45955000       1
C               4.93050000     -3.25378000      4.68568000       6
I               1.55728000     -4.07735000     -6.17884000      53
H               4.78069000      5.91393000     -0.04684710       1
N              -5.92026000      4.56552000      1.54745000       7
I              -2.47564000     -5.66133000     -4.48744000      53
I               0.71168400      7.59964000      0.55557300      53
H               1.47914000     -1.68339000     -7.31889000       1
H               0.87234600     -7.06038000     -2.88971000       1
C              -6.34689000     -2.59365000     -3.46289000       6
H               1.15803000      6.03414000      4.61133000       1
H               2.42848000     -0.29320800     -7.28522000       1
N               1.48747000     -0.66570700     -7.53738000       7
N               0.82756400      6.46419000     -4.15794000       7
H              -3.61092000      2.74026000      6.28351000       1
I               4.66730000      0.42315700     -6.19524000      53
I              -2.44094000     -1.38907000      7.24349000      53
H              -6.34745000     -1.80411000     -4.21636000       1
H               3.49946000     -3.19178000      6.24613000       1
H               4.47156000     -1.82916000      6.19512000       1
C              -6.25134000      4.83430000      0.11549800       6
H              -0.06139960      6.39077000     -4.69997000       1
H               7.16657000      1.95399000     -2.83869000       1
H               6.02769000      4.93802000      1.79960000       1
I               0.82769500      3.27927000      7.25375000      53
H               4.89865000     -4.34287000      4.61133000       1
H               5.95161000     -2.89169000      4.54962000       1
N               4.46909000     -2.86159000      6.05211000       7
I               4.79068000      4.71568000     -4.48744000      53
H               1.61612000      6.31871000     -4.80249000       1
H              -7.21013000     -2.49097000     -2.80131000       1
H              -8.18790000     -0.37937400      0.40554400       1
H               5.35673000     -4.05829000     -4.80249000       1
I              -2.48045000     -5.63313000      5.51955000      53
H              -6.74507000     -2.80024000      3.95032000       1
C              -6.07644000     -3.25378000      4.68568000       6
H               0.05618610      7.88603000     -2.80131000       1
H              -5.65020000     -4.05829000     -4.80249000       1
I               4.96679000     -6.62030000     -1.84133000      53
H              -7.24923000      4.43976000     -0.08795010       1
I               1.34308000     -3.97331000      7.41663000      53
H               1.84500000      7.80482000     -2.88571000       1
H               0.99237500     -6.94989000      4.86847000       1
H               0.52124700      7.57677000      3.95032000       1
C               0.91943300      7.78335000     -3.46289000       6
H              -6.61031000      5.02048000      2.16902000       1
H              -6.22625000      5.91393000     -0.04684710       1
H               7.27842000      1.24500000      4.38485000       1
N              -6.43876000     -3.91281000     -4.15794000       7
C               1.18988000      7.12322000      4.68568000       6
I               8.23542000     -1.95196000     -1.83107000      53
I               4.55054000      0.49604100      7.35184000      53
H              -6.42084000     -4.69023000     -3.45955000       1
N               0.86988400     -8.09282000     -3.03271000       7
I               4.78587000      4.74387000      5.51955000      53
I               1.65328000     -8.56499000      0.52632700      53
H              -6.10829000     -4.34287000      4.61133000       1
H               1.83152000     -0.80991600      8.57376000       1
I              -6.33964000      0.42315700     -6.19524000      53
H              -2.17341000     -3.90284000     -7.67380000       1
H              -0.09975370     -8.42301000     -2.83869000       1
H               1.46590000     -8.49340000     -2.28490000       1
I               5.21020000     -6.74099000      2.67046000      53
N               8.13620000      2.28419000     -3.03271000       7
I              -6.21625000      4.71568000     -4.48744000      53
H               0.09059080     -0.70601200      8.99687000       1
I               8.33208000     -2.06951000      2.80035000      53
H               2.21099000      7.48531000      4.54962000       1
C               1.15639000     -0.39692400     -8.96932000       6
H               5.06511000     -3.26218000      6.79993000       1
I              -2.18333000      6.29965000     -6.17884000      53
I               8.91960000      1.81201000      0.52632700      53
H               1.11357000      0.76815200      9.03798000       1
I              -6.04015000     -6.62030000     -1.84133000      53
H              -2.53698000     -5.37738000     -6.99646000       1
H              -6.53538000     -1.82916000      6.19512000       1
P              -8.00887000      2.11374000     -3.99093000      15
H               0.15849200     -0.79146000     -9.17277000       1
H               8.73222000      1.88360000     -2.28490000       1
H               1.18148000      0.68270400     -9.13167000       1
C              -9.23036000     -0.28018600      0.09856780       6
H               8.13867000      3.31662000     -2.88971000       1
C               1.08849000     -0.31147600      9.20032000       6
I              -5.79674000     -6.74099000      2.67046000      53
I              -2.88753000      2.36841000     -8.52925000      53
H              -9.30333000      0.34428100     -0.79365600       1
N              -6.53784000     -2.86159000      6.05211000       7
P              -4.41030000      7.32804000     -3.89469000      15
H              -2.41056000      9.11579000     -0.07887510       1
H              -0.24115800      7.18522000      6.24613000       1
P              -4.30995000     -0.43614700     -8.49847000      15
H               0.66265200     -8.03146000     -5.13450000       1
H               7.49832000     -5.93724000     -0.08795010       1
I              -6.22106000      4.74387000      5.51955000      53
H              -7.32772000     -3.98623000     -4.69997000       1
H               2.35240000     -8.12291000     -4.53520000       1
H               0.91887100      8.57289000     -4.21636000       1
H              -5.94182000     -3.26218000      6.79993000       1
N              -2.56647000     -4.83975000     -7.88970000       7
C               0.99293700     -7.73943000      5.62194000       6
H               8.52130000     -4.46307000     -0.04684710       1
I              -2.25613000     -9.20454000     -1.66819000      53
N               8.16739000      1.31842000      4.92688000       7
C               1.33129000     -8.48501000     -4.39914000       6
N               0.72847900      7.51541000      6.05211000       7
H               8.56576000      0.80291100     -4.47349000       1
P              -0.65628900      4.60296000     -8.52546000      15
I               4.49481000      8.42504000     -1.83107000      53
H               7.92897000      2.34554000     -5.13450000       1
P              -7.97706000     -5.58192000      0.58634800      15
H              -9.67688000     -1.26121000     -0.07887510       1
H              -9.58113000      1.32839000      1.41102000       1
H              -1.96351000     -4.80150000      8.29117000       1
I              -6.45640000      0.49604100      7.35184000      53
H               4.72934000      4.99963000     -6.99646000       1
H               1.89942000     -0.89536300     -9.59588000       1
C               8.59761000      1.89199000     -4.39914000       6
P              -8.07742000      2.18227000      5.19013000      15
H               0.12969000     -7.63674000      6.28351000       1
I               4.59146000      8.30749000      2.80035000      53
I              -2.10983000     -9.22313000      2.90599000      53
H               1.32450000      7.11482000      6.79993000       1
