200
cutoff_factor=1.20000000 nneightol=1.20000000 Lattice="28.98980000       0.00000000       0.00000000       0.00000000      27.95212000       0.00000000       0.00000000       0.00000000      28.60108000" Properties=species:S:1:pos:R:3:Z:I:1
H               0.17100800      0.36486800      1.05239000       1
I              -1.38921000      0.21956200     -0.99557100      53
N               0.83325000      0.22188700      1.84628000       7
H               1.21219000     -0.74606900      1.74619000       1
H               1.62610000      0.87264300      1.74314000       1
H               0.22349500     -1.85352000     -2.57216000       1
C               0.15256500      0.39732000      3.16361000       6
H              -0.68596600     -0.30084300      3.21607000       1
I               3.05483000      0.66771400     -1.58407000      53
P               0.48561900      2.29231000     -2.64003000      15
H              -0.20139000      1.42703000      3.23385000       1
I               2.28732000     -2.93384000      1.02933000      53
H               0.87467200      0.18506000      3.95385000       1
H               1.33261000     -3.63029000     -1.31907000       1
I               0.47674500      4.08805000      0.04117120      53
C               0.20144800     -2.87799000     -2.94935000       6
P              -3.97392000     -1.36375000      0.03822350      15
H              -0.72334400     -3.37698000     -2.65122000       1
I              -2.15376000     -3.55043000      1.42264000      53
N               1.35409000     -3.62209000     -2.36019000       7
H              -2.21738000      4.03792000      0.05843380       1
H               2.26536000     -3.20359000     -2.62217000       1
I              -4.19539000      0.47923500      2.59867000      53
H               0.30790700     -2.88534000     -4.03601000       1
H              -4.26831000      2.72018000     -0.00879507       1
P               5.00366000     -1.36375000      0.03822350      15
I               0.42847800      0.46327300     -5.24270000      53
H               4.70927000      2.72018000     -0.00879507       1
N              -3.11309000      4.46924000     -0.24083700       7
I               4.78218000      0.47923500      2.59867000      53
H               1.39553000     -4.60495000     -2.70857000       1
H              -3.10613000      4.44622000     -1.28269000       1
H              -2.88439000      1.19860000     -4.71380000       1
H               3.95242000      0.25171400     -4.04656000       1
H               3.77688000      4.25431000     -0.00929093       1
C              -4.29136000      3.75642000      0.33472300       6
P               0.42640800     -5.07308000      2.64974000      15
I              -2.12753000      3.89067000     -3.65565000      53
I              -4.01211000     -3.15259000     -2.64837000      53
I              -1.53880000      3.89308000      4.07690000      53
H              -3.90896000     -0.96312200     -4.23950000       1
H              -4.22024000      3.79812000      1.42369000       1
C               4.68622000      3.75642000      0.33472300       6
I               0.37852700     -3.14644000      5.21385000      53
I              -5.92275000      0.66771400     -1.58407000      53
H               4.75733000      3.79812000      1.42369000       1
H              -3.06690000      5.45885000      0.08302100       1
H              -2.96157000     -3.46531000      4.29391000       1
H              -3.05690000     -5.59012000      0.08302100       1
I               4.96546000     -3.15259000     -2.64837000      53
H              -5.02516000      0.25171400     -4.04656000       1
I               2.35929000      4.46956000     -4.02149000      53
H              -4.17538000     -2.15390000      4.47082000       1
N              -4.43279000     -0.23034200     -4.75383000       7
C              -3.51969000      0.71546500     -5.45850000       6
P               0.41641500      5.97590000      2.64974000      15
N               4.54478000     -0.23034200     -4.75383000       7
I               2.98717000      4.53858000      3.84199000      53
H               5.06861000     -0.96312200     -4.23950000       1
H              -5.20069000      4.25431000     -0.00929093       1
H               3.93424000     -0.74504000     -5.42347000       1
C              -3.56964000     -2.89424000      4.99805000       6
H              -2.91162000      0.14440200     -6.16264000       1
H              -2.93434000     -2.41111000      5.74275000       1
I               2.30934000      0.85985300      6.43506000      53
H               4.80219000     -2.15390000      4.47082000       1
I               0.48673800     -6.96093000      0.04117120      53
P              -4.07073000      2.30543000      5.18870000      15
H               1.38554000      6.44403000     -2.70857000       1
I              -2.17748000      0.28096600      6.80090000      53
N              -3.10310000     -6.57974000     -0.24083700       7
H              -2.20739000     -7.01106000      0.05843380       1
N               5.86448000      4.46924000     -0.24083700       7
I              -6.69025000     -2.93384000      1.02933000      53
H              -3.09614000     -6.60276000     -1.28269000       1
H              -4.12543000      1.45580000     -5.98573000       1
H              -5.04333000     -0.74504000     -5.42347000       1
I              -1.47886000     -3.54618000     -6.37965000      53
H               5.87145000      4.44622000     -1.28269000       1
P               4.90685000      2.30543000      5.18870000      15
H               0.92462300      3.79477000     -6.50270000       1
H              -7.35148000      0.87264300      1.74314000       1
H               1.32262000      7.41869000     -1.31907000       1
I               7.58836000      0.21956200     -0.99557100      53
H               3.88429000     -4.35475000      5.03308000       1
C               5.45788000      0.71546500     -5.45850000       6
H               3.78688000     -6.79466000     -0.00929093       1
H               6.09319000      1.19860000     -4.71380000       1
I               6.82382000     -3.55043000      1.42264000      53
I               3.04711000     -2.90069000     -6.61456000      53
H               4.85215000      1.45580000     -5.98573000       1
H               6.76019000      4.03792000      0.05843380       1
H               0.24796300      4.55393000      6.42054000       1
H              -6.71222000     -3.20359000     -2.62217000       1
N               1.34409000      7.42688000     -2.36019000       7
C               5.40793000     -2.89424000      4.99805000       6
I              -2.16375000      7.49854000      1.42264000      53
P               0.43566800     -1.31740000      7.81652000      15
P               0.47635900     -1.46337000     -7.80681000      15
H              -0.63601500      3.30887000     -7.24048000       1
H              -7.76538000     -0.74606900      1.74619000       1
H               5.91068000      5.45885000      0.08302100       1
I               2.36929000     -6.57941000     -4.02149000      53
I               2.99716000     -6.51040000      3.84199000      53
H               5.92067000     -5.59012000      0.08302100       1
H              -0.73333800      7.67199000     -2.65122000       1
H               6.01600000     -3.46531000      4.29391000       1
N              -4.48275000     -3.84005000      5.70272000       7
N               4.49483000     -3.84005000      5.70272000       7
H               3.90247000     -3.35799000      6.40999000       1
I              -2.11754000     -7.15830000     -3.65565000      53
C               0.20251600      4.00703000     -7.29294000       6
N              -8.14433000      0.22188700      1.84628000       7
H               1.33558000      2.83432000      7.74798000       1
I              -1.52881000     -7.15589000      4.07690000      53
P              -4.01078000     -5.13384000     -5.26785000      15
H              -5.09328000     -4.35475000      5.03308000       1
I              -5.99041000      4.53858000      3.84199000      53
C              -4.28136000     -7.29255000      0.33472300       6
I               2.27733000      8.11514000      1.02933000      53
H              -4.21025000     -7.25086000      1.42369000       1
H              -5.19070000     -6.79466000     -0.00929093       1
H              -7.64497000     -3.63029000     -1.31907000       1
H               2.25536000      7.84538000     -2.62217000       1
H               6.06595000      0.14440200     -6.16264000       1
H              -3.95891000     -4.57283000      6.21705000       1
H               6.04323000     -2.41111000      5.74275000       1
C               4.69621000     -7.29255000      0.33472300       6
I               6.85004000      3.89067000     -3.65565000      53
C               0.19145500      8.17099000     -2.94935000       6
N              -7.62349000     -3.62209000     -2.36019000       7
C               0.14150400      4.56128000      7.50720000       6
H               4.76733000     -7.25086000      1.42369000       1
H              -0.15143900      5.03674000     -7.22270000       1
N               5.87448000     -6.57974000     -0.24083700       7
H              -0.78328900      4.06229000      7.80533000       1
H              -5.07511000     -3.35799000      6.40999000       1
P               4.96679000     -5.13384000     -5.26785000      15
H              -8.80657000      0.36486800      1.05239000       1
P              -4.02078000      5.91514000     -5.26785000      15
H               8.29161000     -0.30084300      3.21607000       1
H               5.88144000     -6.60276000     -1.28269000       1
I              -6.61828000      4.46956000     -4.02149000      53
H              -8.10290000      0.18506000      3.95385000       1
N               1.29414000      3.81718000      8.09636000       7
H               0.29791400      8.16364000     -4.03601000       1
H               0.25795600     -6.49504000      6.42054000       1
P               0.49561200     -8.75667000     -2.64003000      15
H               2.20541000      4.23568000      7.83438000       1
P              -8.49196000      2.29231000     -2.64003000      15
H               5.01866000     -4.57283000      6.21705000       1
H              -2.97157000      7.58367000      4.29391000       1
H               9.14858000      0.36486800      1.05239000       1
H               3.87430000      6.69423000      5.03308000       1
I              -4.02211000      7.89639000     -2.64837000      53
H               1.26214000      2.86364000     -8.71036000       1
H              -7.58205000     -4.60495000     -2.70857000       1
I              -2.10381000      0.05927350     -9.03391000      53
H               8.25423000     -3.37698000     -2.65122000       1
I              -6.66823000      0.85985300      6.43506000      53
H              -8.75408000     -1.85352000     -2.57216000       1
I               7.43877000      3.89308000      4.07690000      53
P               4.95680000      5.91514000     -5.26785000      15
I              -5.93047000     -2.90069000     -6.61456000      53
H              -4.25832000     -8.32880000     -0.00879507       1
C              -8.82501000      0.39732000      3.16361000       6
H              -0.14144500     -6.01223000     -7.22270000       1
I              -8.50083000      4.08805000      0.04117120      53
H               8.77619000      1.42703000      3.23385000       1
N               0.88320100      3.83160000     -8.61027000       7
I               0.36853300      7.90254000      5.21385000      53
H               0.21350100      9.19545000     -2.57216000       1
H               4.71926000     -8.32880000     -0.00879507       1
H               0.17354400     -5.46323000      7.88439000       1
I               6.80009000      0.28096600      6.80090000      53
I              -5.98042000     -6.51040000      3.84199000      53
H               0.16355000      5.58574000      7.88439000       1
C               9.13014000      0.39732000      3.16361000       6
I               4.95547000      7.89639000     -2.64837000      53
C              -8.77613000     -2.87799000     -2.94935000       6
H               9.20107000     -1.85352000     -2.57216000       1
I               2.33727000      0.67587200     -9.42722000      53
H              -3.15608000      0.83651100      9.17386000       1
H               6.77019000     -7.01106000      0.05843380       1
I              -4.14544000      4.08894000     -7.85788000      53
H               0.93461600     -7.25421000     -6.50270000       1
I              -4.07206000      4.28668000      7.80818000      53
H              -5.10328000      6.69423000      5.03308000       1
H              -3.96891000      6.47615000      6.21705000       1
I               3.00488000     -2.94199000      8.87248000      53
H              -9.17897000      1.42703000      3.23385000       1
C               0.15149700     -6.48770000      7.50720000       6
H               1.67605000      4.48235000     -8.71342000       1
I              -1.48885000      7.50279000     -6.37965000      53
H               1.27266000      3.80898000      9.13748000       1
N               9.81083000      0.22188700      1.84628000       7
H              -8.66967000     -2.88534000     -4.03601000       1
I              -8.54910000      0.46327300     -5.24270000      53
C               9.17902000     -2.87799000     -2.94935000       6
P               9.46320000      2.29231000     -2.64003000      15
