200
cutoff_factor=1.20000000 nneightol=1.20000000 Lattice="28.88056000       0.00000000       0.00000000       0.00000000      28.72662000       0.00000000       0.00000000       0.00000000      26.63747000" Properties=species:S:1:pos:R:3:Z:I:1
I              -0.00136303      1.73099000      0.08213510      53
H               2.29536000      0.49354600      0.13415900       1
H              -2.29807000      0.49353800      0.13409100       1
H               2.24799000     -1.80819000      0.88500700       1
H              -2.25060000     -1.80814000      0.88499900       1
N               3.14538000     -0.10041900      0.02842220       7
N              -3.14811000     -0.10041900      0.02842220       7
H               3.14533000     -0.49597500     -0.94154800       1
H              -3.14816000     -0.49597500     -0.94154800       1
H              -0.00146105      2.66716000     -2.20955000       1
C               3.14542000     -1.20360000      1.03442000       6
C              -3.14807000     -1.20360000      1.03442000       6
I              -0.00133271     -1.26656000      3.34521000      53
H               3.14541000     -0.76300100      2.03368000       1
H              -3.14807000     -0.76300100      2.03368000       1
P              -0.00132801      1.93762000      3.40034000      15
H               3.99542000      0.49353800      0.13409100       1
H              -3.99813000      0.49354600      0.13415900       1
H               0.84021900     -2.75302000     -3.26764000       1
H              -0.84312000     -2.75298000     -3.26764000       1
H              -0.00146379     -3.77776000     -2.20955000       1
N              -0.00146042      3.08378000     -3.16698000       7
H               0.89563700      1.42891000     -4.12207000       1
H              -0.89863500      1.42893000     -4.12204000       1
H               4.04288000     -1.80814000      0.88499900       1
H              -4.04550000     -1.80819000      0.88500700       1
N              -0.00146316     -3.36114000     -3.16698000       7
I               3.14529000     -1.56942000     -3.12281000      53
C              -0.00149633      2.04134000     -4.23619000       6
I              -3.14820000     -1.56942000     -3.12281000      53
I              -0.00136577     -4.71392000      0.08213510      53
H               0.84022200      3.69190000     -3.26764000       1
H              -0.84311700      3.69193000     -3.26764000       1
I               3.14542000      2.04943000      3.32908000      53
I              -3.14807000      2.04943000      3.32908000      53
H               2.24799000      4.63672000      0.88500700       1
H              -2.25060000      4.63678000      0.88499900       1
P              -0.00133075     -4.50730000      3.40034000      15
H              -0.00151288      2.53597000     -5.20956000       1
C              -0.00149907     -4.40357000     -4.23619000       6
I              -0.00132997      5.17835000      3.34521000      53
C               3.14542000      5.24132000      1.03442000       6
C              -3.14807000      5.24132000      1.03442000       6
H               4.04289000      4.63678000      0.88499900       1
H              -4.04550000      4.63672000      0.88500700       1
I              -0.00150246     -1.09139000     -6.13373000      53
I               3.14541000     -4.39549000      3.32908000      53
I              -3.14807000     -4.39549000      3.32908000      53
H               2.29536000     -5.95137000      0.13415900       1
H              -2.29807000     -5.95138000      0.13409100       1
H              -0.00151562     -3.90894000     -5.20956000       1
I               6.29213000      1.73099000      0.08213510      53
I              -6.29485000      1.73099000      0.08213510      53
H               0.89563400     -5.01600000     -4.12207000       1
H              -0.89863800     -5.01599000     -4.12204000       1
I               3.14529000      4.87549000     -3.12281000      53
I              -3.14820000      4.87549000     -3.12281000      53
H               3.14551000     -2.22804000      5.51276000       1
H              -3.14798000     -2.22804000      5.51276000       1
H               3.14533000      5.94894000     -0.94154800       1
H              -3.14816000      5.94894000     -0.94154800       1
H               3.14542000      5.68191000      2.03368000       1
H              -3.14807000      5.68191000      2.03368000       1
H               5.45037000     -2.75298000     -3.26764000       1
H              -5.45327000     -2.75302000     -3.26764000       1
I              -0.00126024      2.08791000      6.60844000      53
H               5.39485000      1.42893000     -4.12204000       1
H              -5.39785000      1.42891000     -4.12207000       1
N               3.14538000      6.34449000      0.02842220       7
N              -3.14811000      6.34449000      0.02842220       7
H               3.99541000     -5.95138000      0.13409100       1
H              -3.99813000     -5.95137000      0.13415900       1
H               6.29203000      2.66716000     -2.20955000       1
H              -6.29495000      2.66716000     -2.20955000       1
I               6.29216000     -1.26656000      3.34521000      53
I              -6.29482000     -1.26656000      3.34521000      53
N               3.14538000     -6.54533000      0.02842220       7
N              -3.14811000     -6.54533000      0.02842220       7
H               2.29536000      6.93846000      0.13415900       1
H              -2.29807000      6.93845000      0.13409100       1
P               3.14523000     -1.16595000     -6.51589000      15
P              -3.14826000     -1.16595000     -6.51589000      15
H               5.45037000      3.69193000     -3.26764000       1
H              -5.45327000      3.69190000     -3.26764000       1
P               6.29216000      1.93762000      3.40034000      15
P              -6.29482000      1.93762000      3.40034000      15
H               2.24769000     -0.56935500      7.09186000       1
H              -2.25004000     -0.56943000      7.09188000       1
H               3.14551000      4.21687000      5.51276000       1
H              -3.14798000      4.21687000      5.51276000       1
N               3.14549000     -2.39846000      6.53027000       7
N              -3.14800000     -2.39846000      6.53027000       7
H               6.29203000     -3.77776000     -2.20955000       1
H              -6.29495000     -3.77776000     -2.20955000       1
H               3.14533000     -6.94089000     -0.94154800       1
H              -3.14816000     -6.94089000     -0.94154800       1
N               6.29203000      3.08378000     -3.16698000       7
N              -6.29495000      3.08378000     -3.16698000       7
H               2.30623000     -2.97359000      6.75218000       1
H              -2.30877000     -2.97364000      6.75220000       1
I               3.14523000      2.05881000     -6.76740000      53
I              -3.14826000      2.05881000     -6.76740000      53
N               6.29203000     -3.36114000     -3.16698000       7
N              -6.29495000     -3.36114000     -3.16698000       7
C               6.29199000      2.04134000     -4.23619000       6
C              -6.29499000      2.04134000     -4.23619000       6
I               6.29212000     -4.71392000      0.08213510      53
I              -6.29485000     -4.71392000      0.08213510      53
I              -0.00126298     -4.35701000      6.60844000      53
H               2.30623000      3.47133000      6.75218000       1
H              -2.30877000      3.47128000      6.75220000       1
H               3.99542000      6.93845000      0.13409100       1
H              -3.99813000      6.93846000      0.13415900       1
C               3.14555000     -1.14043000      7.33916000       6
C              -3.14794000     -1.14043000      7.33916000       6
H               3.14541000     -7.20791000      2.03368000       1
H              -3.14808000     -7.20791000      2.03368000       1
I              -0.00149972      5.35352000     -6.13373000      53
I              -0.00136029      8.17591000      0.08213510      53
H               4.04345000     -0.56943000      7.09188000       1
H              -4.04580000     -0.56935500      7.09186000       1
N               3.14550000      4.04646000      6.53027000       7
N              -3.14799000      4.04646000      6.53027000       7
H               7.13371000     -2.75302000     -3.26764000       1
H              -7.13661000     -2.75298000     -3.26764000       1
C               3.14541000     -7.64851000      1.03442000       6
C              -3.14807000     -7.64851000      1.03442000       6
H               3.98471000     -2.97364000      6.75220000       1
H              -3.98726000     -2.97359000      6.75218000       1
I              -0.00133545     -7.71148000      3.34521000      53
H               7.18913000      1.42891000     -4.12207000       1
H              -7.19212000      1.42893000     -4.12204000       1
H               5.39485000     -5.01599000     -4.12204000       1
H              -5.39785000     -5.01600000     -4.12207000       1
P               6.29216000     -4.50730000      3.40034000      15
P              -6.29482000     -4.50730000      3.40034000      15
H               6.29198000      2.53597000     -5.20956000       1
H              -6.29500000      2.53597000     -5.20956000       1
H               3.98472000      3.47128000      6.75220000       1
H              -3.98726000      3.47133000      6.75218000       1
H               2.24798000     -8.25311000      0.88500700       1
H              -2.25061000     -8.25305000      0.88499900       1
H               8.58885000      0.49354600      0.13415900       1
H              -8.59156000      0.49353800      0.13409100       1
I               3.14523000     -4.38610000     -6.76740000      53
I              -3.14826000     -4.38610000     -6.76740000      53
H               7.13371000      3.69190000     -3.26764000       1
H              -7.13661000      3.69193000     -3.26764000       1
C               6.29199000     -4.40357000     -4.23619000       6
C              -6.29499000     -4.40357000     -4.23619000       6
H               8.54147000     -1.80819000      0.88500700       1
H              -8.54409000     -1.80814000      0.88499900       1
I               6.29216000      5.17835000      3.34521000      53
I              -6.29482000      5.17835000      3.34521000      53
I               6.29199000     -1.09139000     -6.13373000      53
I              -6.29499000     -1.09139000     -6.13373000      53
H               0.89563900      7.87383000     -4.12207000       1
H              -0.89863300      7.87384000     -4.12204000       1
P               3.14523000      5.27897000     -6.51589000      15
P              -3.14826000      5.27897000     -6.51589000      15
P              -0.00132527      8.38253000      3.40034000      15
H               6.29197000     -3.90894000     -5.20956000       1
H              -6.29500000     -3.90894000     -5.20956000       1
H               3.14553000     -1.41027000      8.39794000       1
H              -3.14796000     -1.41027000      8.39794000       1
I               3.14528000     -8.01434000     -3.12281000      53
I              -3.14821000     -8.01434000     -3.12281000      53
H               4.04288000     -8.25305000      0.88499900       1
H              -4.04551000     -8.25311000      0.88500700       1
I               6.29223000      2.08791000      6.60844000      53
I              -6.29475000      2.08791000      6.60844000      53
H              -0.00145831      9.11207000     -2.20955000       1
N               9.43887000     -0.10041900      0.02842220       7
N              -9.44160000     -0.10041900      0.02842220       7
H               2.24769000      5.87556000      7.09186000       1
H              -2.25003000      5.87548000      7.09188000       1
C              -0.00149359      8.48626000     -4.23619000       6
H               9.43882000     -0.49597500     -0.94154800       1
H              -9.44165000     -0.49597500     -0.94154800       1
C               9.43891000     -1.20360000      1.03442000       6
C              -9.44156000     -1.20360000      1.03442000       6
C               3.14555000      5.30448000      7.33916000       6
C              -3.14794000      5.30448000      7.33916000       6
I               3.14542000      8.49434000      3.32908000      53
I              -3.14807000      8.49434000      3.32908000      53
H               9.43890000     -0.76300100      2.03368000       1
H               7.18912000     -5.01600000     -4.12207000       1
H              -9.44156000     -0.76300100      2.03368000       1
H              -7.19213000     -5.01599000     -4.12204000       1
I              -0.00150520     -7.53630000     -6.13373000      53
H               8.54148000      4.63672000      0.88500700       1
H              -8.54409000      4.63678000      0.88499900       1
H               0.84021600     -9.19793000     -3.26764000       1
H              -0.84312300     -9.19790000     -3.26764000       1
I              -0.00120411     -1.26723000      9.81287000      53
N              -0.00145768      9.52869000     -3.16698000       7
P              -0.00119815      1.91717000      9.87007000      15
H               4.04346000      5.87548000      7.09188000       1
H              -4.04579000      5.87556000      7.09186000       1
I               9.43877000     -1.56942000     -3.12281000      53
