200
cutoff_factor=1.20000000 nneightol=1.20000000 Lattice="28.97643000       0.00000000       0.00000000       0.00000000      28.35941000       0.00000000       0.00000000       0.00000000      28.09996000" Properties=species:S:1:pos:R:3:Z:I:1
H              -0.69037500      0.05423960     -1.14654000       1
I               2.13430000      0.84159000      0.67421600      53
C              -1.45064000      0.25863100     -1.90375000       6
H              -2.05753000      1.11954000     -1.61689000       1
H               1.66627000     -1.48745000      1.84965000       1
H              -0.98799100      0.42892000     -2.87770000       1
N              -2.34563000     -0.92713500     -2.01252000       7
H              -2.84639000     -1.11963000     -1.11772000       1
H              -1.83245000     -1.78445000     -2.31291000       1
I              -1.38250000     -0.43385500      3.19130000      53
H               0.68690800     -2.84506000      1.94521000       1
N               1.67466000     -2.52297000      1.94477000       7
P               0.22906200      2.28427000      2.83763000      15
I              -1.72126000      3.21125000      0.47289100      53
H               2.10444000     -2.89269000      1.07006000       1
H               2.00935000      3.15260000     -0.76334000       1
H              -3.08767000     -0.78345400     -2.72315000       1
I               2.49157000     -3.15090000     -1.45097000      53
I               1.81929000      0.64028900     -3.83350000      53
P               3.99294000     -0.34054500     -1.68361000      15
I              -1.32238000     -4.25413000      0.77721000      53
N               2.38977000      4.08579000     -1.00534000       7
C               2.41566000     -2.96256000      3.16300000       6
I              -4.86271000     -1.33319000      0.42301300      53
H               1.92229000     -2.53791000      4.04004000       1
H               0.56440000      4.84124000     -1.74056000       1
H               2.37038000      4.63701000     -0.12027100       1
P              -3.44492000     -2.85408000      2.84440000      15
H               3.44349000     -2.60157000      3.08858000       1
H               1.63084000      4.09264000     -2.97176000       1
H               3.37795000      3.92274000     -1.29556000       1
C               1.59378000      4.73360000     -2.08849000       6
H              -4.79431000      1.31443000      2.15095000       1
I              -1.33309000     -3.78704000     -3.80929000      53
H               4.63318000      2.01283000      2.48789000       1
I              -1.68060000      3.52998000     -4.07105000      53
H               2.39742000     -4.05360000      3.20263000       1
P               0.34701400     -5.54643000     -1.73723000      15
I               2.21864000      1.49855000      5.24070000      53
I               1.92341000      5.02269000      2.40899000      53
H               2.19174000     -1.46313000     -5.33510000       1
H              -3.80449000      3.16960000      3.39723000       1
P              -3.38873000      4.85964000     -1.73723000      15
I               5.47153000      2.51195000     -1.87278000      53
I               6.18396000     -1.33319000      0.42301300      53
C              -5.39641000      1.88184000      2.86419000       6
I              -5.57513000      2.51195000     -1.87278000      53
H              -4.73785000      3.76614000      2.14647000       1
I              -1.68596000      3.83149000      4.93335000      53
H               2.03030000      5.71124000     -2.30503000       1
N              -4.77694000      3.23201000      3.03625000       7
H              -2.12835000     -1.02783000      6.07823000       1
C               5.65026000      1.88184000      2.86419000       6
P               0.31427200      2.26639000     -6.20559000      15
H               6.25236000      1.31443000      2.15095000       1
H              -5.41055000      1.38235000      3.83547000       1
I              -5.23769000     -1.45410000     -4.11663000      53
H               2.08438000     -3.90325000     -5.21452000       1
I              -1.62833000     -0.26290200     -6.64100000      53
N               2.71800000     -2.05359000     -6.01373000       7
H               5.63612000      1.38235000      3.83547000       1
H              -1.72889000      0.59076700      6.74496000       1
H              -1.00211000     -6.63992000      2.14647000       1
H               3.69044000     -2.11600000     -5.65275000       1
I              -1.93990000     -4.48018000      5.21649000      53
H              -6.41349000      2.01283000      2.48789000       1
H              -1.33832000      6.35247000      3.20263000       1
H               4.30014000     -5.56483000     -1.74056000       1
P              -7.05372000     -0.34054500     -1.68361000      15
I               5.80898000     -1.45410000     -4.11663000      53
C              -2.16541000     -0.38686700      6.96150000       6
C               2.09852000     -3.40376000     -6.18580000       6
H               1.08145000     -3.27276000     -6.56209000       1
H              -5.28063000     -4.69483000     -2.30503000       1
I               2.01448000     -7.19482000      0.47289100      53
I              -1.24418000      7.25516000     -1.45097000      53
H              -5.30320000      3.82247000      3.71488000       1
H              -3.84399000      2.51891000     -5.96140000       1
I              -5.43979000     -1.59049000      4.97893000      53
H               2.75708000     -1.51945000     -6.90351000       1
H              -4.94054000     -5.76906000     -0.12027100       1
H               6.30881000      3.76614000      2.14647000       1
P              -3.32267000     -3.00133000     -6.21235000      15
I               5.60688000     -1.59049000      4.97893000      53
N               6.26973000      3.23201000      3.03625000       7
H              -3.93297000     -6.48333000     -1.29556000       1
H              -4.89005000      1.06687000     -5.84735000       1
H              -1.56745000     -6.58360000      3.71488000       1
H              -1.63130000      7.51338000      1.07006000       1
H               0.46406200      4.50214000      6.32684000       1
H              -5.36519000      2.58256000     -5.00995000       1
H               5.76604000     -4.69483000     -2.30503000       1
H               1.71929000      3.50114000      6.73707000       1
I               1.71234000     -2.60852000      7.17720000      53
H               5.74347000      3.82247000      3.71488000       1
H              -0.38124100     -1.19773000      7.75442000       1
N              -1.04119000     -7.17406000      3.03625000       7
I               2.37669000      4.68662000     -5.85868000      53
C              -4.87181000      2.15791000     -5.88698000       6
H              -3.19479000     -0.27923400      7.30942000       1
I              -5.38752000     -5.38337000      2.40899000      53
H              -0.06875090     -7.23647000      3.39723000       1
I              -5.05812000      6.15193000      0.77721000      53
H               5.68148000      2.58256000     -5.00995000       1
C               5.32952000     -5.67246000     -2.08849000       6
N              -4.92116000     -6.32027000     -1.00534000       7
I               5.65915000     -5.38337000      2.40899000      53
C              -1.32008000      7.44351000      3.16300000       6
N              -1.36942000     -1.03468000      8.04465000       7
I               2.05515000     -6.87608000     -4.07105000      53
P               3.89875000     -0.26083100      7.31275000      15
I              -1.83939000     -7.89411000     -1.87278000      53
C              -5.71715000     -5.67246000     -2.08849000       6
H               8.20028000     -1.11963000     -1.11772000       1
N               1.20611000      4.35846000      7.03747000       7
N              -2.06108000      7.88309000      1.94477000       7
H              -3.04883000      7.56101000      1.94521000       1
H              -0.29225400      7.80450000      3.08858000       1
H               6.10612000     -5.76906000     -0.12027100       1
H               2.70062000     -3.97117000     -6.89903000       1
H               7.95900000     -0.78345400     -2.72315000       1
I               2.04979000     -6.57458000      4.93335000      53
H              -1.65136000      6.50282000     -5.21452000       1
H               6.15661000      1.06687000     -5.84735000       1
P               7.60175000     -2.85408000      2.84440000      15
H               7.24217000      3.16960000      3.39723000       1
H              -7.60318000     -2.60157000      3.08858000       1
I               5.98855000      6.15193000      0.77721000      53
I               2.43681000      0.86633800     -8.27277000      53
H               4.44610000      2.27541000     -7.10478000       1
H              -1.74985000     -1.96787000      8.28664000       1
H              -7.66872000      3.92274000     -1.29556000       1
H               2.56374000      5.71452000      6.17228000       1
C               6.17485000      2.15791000     -5.88698000       6
H               5.36658000     -6.31342000     -2.97176000       1
N               6.12551000     -6.32027000     -1.00534000       7
H              -6.74652000     -5.56483000     -1.74056000       1
P               3.86600000      7.55199000      2.84440000      15
I              -8.91237000      0.84159000      0.67421600      53
N               8.70104000     -0.92713500     -2.01252000       7
H               0.70534600      4.16597000      7.93226000       1
H              -5.68009000     -6.31342000     -2.97176000       1
H              -5.30158000     -7.25346000     -0.76334000       1
H              -1.81346000      7.86816000      4.04004000       1
H              -1.38881000     -0.48346100      8.92971000       1
H              -4.74718000     -4.69155000      6.17228000       1
C              -1.66067000     -8.52423000      2.86419000       6
H              -2.67774000     -8.39323000      2.48789000       1
I              -5.06884000      6.61903000     -3.80929000      53
P               0.23375400     -5.46102000      7.36637000      15
H               8.98914000      1.11954000     -1.61689000       1
I              -8.55510000     -3.15090000     -1.45097000      53
P               7.65794000      4.85964000     -1.73723000      15
H              -1.18135000     -0.64858500     -9.17025000       1
H               5.74509000     -7.25346000     -0.76334000       1
C               2.10110000      5.54423000      7.14623000       6
N               5.43385000      2.59750000     -7.10521000       7
H              -2.06947000      8.91861000      1.84965000       1
I              -5.00337000      2.13469000      7.59901000      53
H              -1.05857000     -9.09164000      2.15095000       1
I               2.44822000      9.07288000      0.42301300      53
N              -5.61282000      2.59750000     -7.10521000       7
H              -1.62945000     -7.82350000     -5.00995000       1
H              -8.94222000     -2.89269000      1.07006000       1
P               3.96480000     -8.12180000      2.83763000      15
C              -1.63722000      7.00231000     -6.18580000       6
I              -1.10352000      3.78728000     -8.62697000      53
H              -1.03512000      6.43490000     -6.89903000       1
H              -7.35623000     -2.11600000     -5.65275000       1
P              -3.50199000      4.94505000      7.36637000      15
I               5.37102000      5.92589000      5.21649000      53
I              -4.93424000     -5.71945000     -5.85868000      53
H               1.67822000     -9.28653000     -1.61689000       1
I              -1.41744000     -4.44401000     -8.37577000      53
H              -9.03732000      3.15260000     -0.76334000       1
H               4.19980000     -5.90393000      6.32684000       1
N              -8.65690000      4.08579000     -1.00534000       7
C              -8.63100000     -2.96256000      3.16300000       6
H               9.21422000     -1.78445000     -2.31291000       1
H              -9.38040000     -1.48745000      1.84965000       1
H               7.20268000      2.51891000     -5.96140000       1
I               5.97783000      6.61903000     -3.80929000      53
H               7.11369000     -6.48333000     -1.29556000       1
H               5.42546000      3.63302000     -7.20033000       1
I              -5.67564000      5.92589000      5.21649000      53
H              -5.18303000      2.22778000     -7.97992000       1
C               9.59603000      0.25863100     -1.90375000       6
H              -5.62121000      3.63302000     -7.20033000       1
H              -8.67629000      4.63701000     -0.12027100       1
I               9.32540000      3.21125000      0.47289100      53
H              -0.10824400     -7.88716000     -5.96140000       1
N              -9.37201000     -2.52297000      1.94477000       7
H               1.49421000      6.40513000      7.43309000       1
H               5.22995000     -4.00093000      7.43309000       1
I               6.04330000      2.13469000      7.59901000      53
H              -1.67481000     -9.02372000      3.83547000       1
H               2.86136000      5.33984000      7.90344000       1
H              -6.60057000      2.27541000     -7.10478000       1
H               6.29949000     -4.69155000      6.17228000       1
I              -9.22738000      0.64028900     -3.83350000      53
