200
cutoff_factor=1.20000000 nneightol=1.20000000 Lattice="28.25717000       0.00000000       0.00000000       0.00000000      28.37902000       0.00000000       0.00000000       0.00000000      29.27910000" Properties=species:S:1:pos:R:3:Z:I:1
I               1.85663000      0.51127500     -0.93258400      53
H               0.19981300     -2.19842000     -0.41532800       1
H              -1.02045000      0.26393500      2.00533000       1
I              -2.80354000      0.15976800     -0.12879500      53
H               0.45180200     -0.05174720      2.83953000       1
N              -0.57623900      0.09576200      2.93077000       7
C               0.08592620     -3.10010000      0.19064300       6
H               0.48626700     -2.94047000      1.19429000       1
H              -1.00462000      3.03853000     -0.55745100       1
H              -1.92238000     -2.64267000      0.71539400       1
H              -0.56815600      0.39302700     -3.28178000       1
H              -1.03450000     -0.73121100      3.37787000       1
N              -1.36524000     -3.41155000      0.30392100       7
H              -0.53698100      2.85663000     -2.28056000       1
C              -0.48057200      3.49818000     -1.39859000       6
H               0.56153200      3.69607000     -1.13818000       1
H              -0.30184600      2.14830000      3.33428000       1
H               0.58356200     -3.94643000     -0.28856500       1
H              -1.74874000     -3.59051000     -0.65082300       1
C              -0.77370700      1.28501000      3.80900000       6
C              -0.18215000     -0.11509400     -4.16824000       6
H               0.91015200     -0.12419600     -4.15849000       1
H              -0.57328600     -1.13351000     -4.22503000       1
P               3.80300000      2.37681000      0.78238800      15
H              -1.84642000      1.45234000      3.92783000       1
I               3.01746000      0.71932500      3.37751000      53
H              -1.53376000     -4.29354000      0.83701900       1
P               4.05706000     -1.51589000     -2.03517000      15
H              -0.30899700      1.08167000      4.77646000       1
I               3.66245000     -3.52143000      0.51061300      53
I               1.80400000     -3.16564000     -3.58838000      53
I               1.56033000      4.61314000      1.68809000      53
N              -1.14244000      4.79670000     -1.71566000       7
N              -0.63540200      0.62938400     -5.37513000       7
H              -2.15325000      4.66185000     -1.95085000       1
I              -2.69302000     -3.80844000     -2.91036000      53
P              -4.88859000     -1.51589000     -2.03517000      15
I              -2.98778000      3.98457000      2.48461000      53
I              -2.73641000     -2.54179000      4.14192000      53
H              -0.25099200      1.60022000     -5.38092000       1
H              -1.13378000      5.43608000     -0.89318100       1
H              -1.67638000      0.63904800     -5.41351000       1
P              -5.14265000      2.37681000      0.78238800      15
H              -0.65959900      5.31084000     -2.47593000       1
I               6.14211000      0.15976800     -0.12879500      53
I              -4.13849000      0.10648200     -4.63258000      53
H              -0.26828800      0.16647700     -6.23003000       1
I               4.33700000      4.23498000     -1.78815000      53
I               1.99318000     -3.37451000      5.00966000      53
I              -5.28320000     -3.52143000      0.51061300      53
I              -4.60865000      4.23498000     -1.78815000      53
I               1.62670000      3.38871000     -5.46768000      53
I               4.80716000      0.10648200     -4.63258000      53
I              -5.92819000      0.71932500      3.37751000      53
H               3.92196000     -5.69978000     -0.89318100       1
P              -0.34911700     -5.33781000     -4.54419000      15
P              -0.83681900      6.17709000      3.32122000      15
I              -2.32958000     -6.52272000      1.68809000      53
I               0.44708900     -6.90088000     -1.78815000      53
I              -7.08902000      0.51127500     -0.93258400      53
P               3.90727000     -0.96516900      5.93314000      15
H               0.11548700     -5.16300000      5.09642000       1
H               2.35615000      6.84232000      0.83701900       1
P               4.21892000     -4.95878000      3.32122000      15
H               2.90249000     -6.47401000     -1.95085000       1
I               0.11790000      4.47913000      5.84475000      53
H               3.98810000      4.53912000      4.24730000       1
H               7.02327000     -2.64267000      0.71539400       1
I              -2.88526000      1.20700000      6.88895000      53
H               2.58001000      5.01169000      5.06383000       1
I               5.95787000      3.98457000      2.48461000      53
P              -4.72673000     -4.95878000      3.32122000      15
N               3.91330000     -6.33917000     -1.71566000       7
H              -5.02369000     -5.69978000     -0.89318100       1
H               4.39614000     -5.82502000     -2.47593000       1
H               2.84284000     -2.92030000     -6.54950000       1
I               1.56337000      0.56420600      7.56698000      53
I              -1.39328000      7.61443000      0.51061300      53
H              -4.54951000     -5.82502000     -2.47593000       1
P              -5.03838000     -0.96516900      5.93314000      15
H               0.09819060     -6.59674000      4.24730000       1
I               2.06796000     -7.15129000      2.48461000      53
H               2.14117000      7.54536000     -0.65082300       1
I               6.25263000     -3.80844000     -2.91036000      53
I               6.20924000     -2.54179000      4.14192000      53
H               4.38026000     -3.29097000     -5.70087000       1
H               3.68311000      3.23913000      6.25231000       1
H              -4.95755000      4.53912000      4.24730000       1
I               1.19690000      7.32742000     -2.91036000      53
N              -0.26892300     -6.13384000      5.10221000       7
N               3.62099000      5.00203000      5.10221000       7
H              -4.56539000     -3.29097000     -5.70087000       1
H              -1.30991000     -6.12417000      5.06383000       1
H               7.19691000     -3.59051000     -0.65082300       1
I              -1.23893000     -3.65332000     -7.09982000      53
N               2.52467000      7.72431000      0.30392100       7
H              -0.29312000     -1.45238000      8.00141000       1
P               3.54080000      5.79805000     -4.54419000      15
H               7.92520000      0.26393500      2.00533000       1
I               1.70148000     -0.38806900     -7.99272000      53
I              -3.10289000      4.22143000     -6.33542000      53
H              -3.32838000     -7.43979000     -1.13818000       1
H               7.09923000      1.45234000      3.92783000       1
N              -5.03235000     -6.33917000     -1.71566000       7
N               7.58041000     -3.41155000      0.30392100       7
P               3.85244000      1.80444000     -7.15611000      15
C               3.91555000     -3.08764000     -6.66833000       6
H               6.79240000      4.66185000     -1.95085000       1
H              -4.47218000      7.18943000     -0.28856500       1
H               4.47348000      7.18943000     -0.28856500       1
H              -3.77911000      4.24845000      6.31885000       1
H               7.94103000      3.03853000     -0.55745100       1
I              -7.14165000     -3.16564000     -3.58838000      53
H               7.41189000     -4.29354000      0.83701900       1
C               4.07424000      4.25755000      6.30910000       6
H               7.91115000     -0.73121100      3.37787000       1
H               4.38741000     -2.22435000     -7.14305000       1
H               1.96753000      8.49320000      0.71539400       1
H              -4.55824000     -2.22435000     -7.14305000       1
H              -5.26255000      3.23913000      6.25231000       1
P              -0.08690920     -8.75905000      0.78238800      15
H               4.00540000      5.97287000      5.09642000       1
N               8.36941000      0.09576200      2.93077000       7
I              -7.38532000      4.61314000      1.68809000      53
C              -5.03010000     -3.08764000     -6.66833000       6
C              -4.37049000     -7.63768000     -1.39859000       6
N              -5.32466000      5.00203000      5.10221000       7
P              -0.63220100      2.85675000      8.44217000      15
H              -8.49385000     -0.05174720      2.83953000       1
H              -1.78677000     -2.10137000      8.52649000       1
P              -5.09321000      1.80444000     -7.15611000      15
C               3.97584000      8.03576000      0.19064300       6
H               8.37749000      0.39302700     -3.28178000       1
C               4.57517000     -7.63768000     -1.39859000       6
N              -0.77595800     -1.96652000      8.76168000       7
H              -8.74584000     -2.19842000     -0.41532800       1
H              -8.45938000     -2.94047000      1.19429000       1
C              -4.87141000      4.25755000      6.30910000       6
H              -8.03550000     -0.12419600     -4.15849000       1
H              -6.04316000     -6.47401000     -1.95085000       1
H               4.05112000     -8.09733000     -0.55745100       1
H              -0.17050200     -3.90659000      8.19677000       1
H               7.26927000      0.63904800     -5.41351000       1
C               8.17194000      1.28501000      3.80900000       6
P              -5.40486000      5.79805000     -4.54419000      15
H               8.40867000      2.85663000     -2.28056000       1
I              -2.69606000      0.24049700     -8.78925000      53
H               5.16654000      4.24845000      6.31885000       1
I              -6.95247000     -3.37451000      5.00966000      53
H              -8.38412000      3.69607000     -1.13818000       1
H              -8.36209000     -3.94643000     -0.28856500       1
I               6.06039000      1.20700000      6.88895000      53
C               8.46508000      3.49818000     -1.39859000       6
H              -4.94025000      5.97287000      5.09642000       1
N               7.80321000      4.79670000     -1.71566000       7
I              -3.25174000      7.97022000     -3.58838000      53
C               0.18432900     -6.87831000      6.30910000       6
H               4.37618000      8.19539000      1.19429000       1
H               3.68824000      4.76567000      7.19555000       1
C              -8.85972000     -3.10010000      0.19064300       6
H               5.61727000     -7.43979000     -1.13818000       1
H               9.14546000     -2.19842000     -0.41532800       1
H              -6.10281000     -2.92030000     -6.54950000       1
H              -1.40098000      6.03201000     -7.09947000       1
H               1.27663000     -6.88741000      6.31885000       1
I               6.61607000     -6.52272000      1.68809000      53
H               8.37236000     -1.13351000     -4.22503000       1
C              -4.96981000      8.03576000      0.19064300       6
H              -4.56947000      8.19539000      1.19429000       1
H               3.65476000     -5.10385000     -7.09947000       1
H              -4.89453000     -8.09733000     -0.55745100       1
H               8.64381000      2.14830000      3.33428000       1
H              -6.58950000      6.84232000      0.83701900       1
C               9.03158000     -3.10010000      0.19064300       6
H              -6.36564000      5.01169000      5.06383000       1
H               7.81187000      5.43608000     -0.89318100       1
I               1.95285000     -6.91444000     -6.33542000      53
I               5.84276000      4.22143000     -6.33542000      53
N               4.11302000     -4.27688000     -7.54657000       7
I               1.15350000      8.59407000      4.14192000      53
H              -3.80459000     -4.42439000     -7.63781000       1
H              -0.20167800     -6.37019000      7.19555000       1
I              -3.77201000     -6.65674000      5.84475000      53
C              -0.11409300     -3.26504000      9.07875000       6
H              -4.42689000     -8.27923000     -2.28056000       1
H               4.51876000     -8.27923000     -2.28056000       1
C               8.76350000     -0.11509400     -4.16824000       6
H              -0.76730200     -1.32713000      9.58415000       1
H              -0.67547600      7.84489000     -5.70087000       1
I              -3.06255000      7.76135000      5.00966000      53
I              -7.31895000      3.38871000     -5.46768000      53
I              -2.26321000     -7.74715000     -5.46768000      53
H               9.39745000     -0.05174720      2.83953000       1
H               4.08973000      8.93744000     -0.41532800       1
H               0.92801100     -3.06715000      9.33916000       1
P              -0.99868000      9.61997000     -2.03517000      15
P              -0.45338800     -1.99583000     -9.69495000      15
N               8.31025000      0.62938400     -5.37513000       7
H               8.63665000      1.08167000      4.77646000       1
N              -4.83263000     -4.27688000     -7.54657000       7
