200
cutoff_factor=1.20000000 nneightol=1.20000000 Lattice="28.90220000       0.00000000       0.00000000       0.00000000      29.28165000       0.00000000       0.00000000       0.00000000      28.94306000" Properties=species:S:1:pos:R:3:Z:I:1
I               0.45763800     -1.68962000      0.29846100      53
H              -1.71193000      1.15013000      0.38576300       1
H              -0.60575000      1.85429000      1.42867000       1
N              -1.60065000      1.56928000      1.32823000       7
P               2.28258000      0.48755600     -1.37236000      15
H              -1.80539000      0.83815600      2.03747000       1
I              -0.37583800      1.90719000     -2.38457000      53
I               2.10248000      2.19797000      1.39091000      53
H              -1.00251000     -0.81722000     -3.33597000       1
H               2.59407000      0.00967450      2.87325000       1
H               2.55372000     -1.61039000      2.45935000       1
C              -2.51676000      2.73926000      1.49145000       6
P              -2.26437000     -3.24031000      1.32972000      15
H               1.46966000     -3.87585000     -0.48342500       1
I              -4.02409000     -1.07855000     -0.30459100      53
H              -2.26978000      3.48094000      0.72848100       1
N               2.79442000     -0.95048400      3.22094000       7
H               0.93459600     -1.18354000      4.19325000       1
H              -3.54549000      2.39294000      1.36942000       1
H              -3.22945000     -1.62103000     -2.77411000       1
C              -1.62604000     -1.27319000     -4.10705000       6
H              -2.17145000     -2.90025000     -2.88459000       1
H              -2.37016000      3.15594000      2.49056000       1
I              -2.47705000     -1.18307000      3.78682000      53
I               2.28221000     -1.46412000     -3.91100000      53
N              -2.62897000     -2.14961000     -3.43944000       7
I               4.89531000     -1.07855000     -0.30459100      53
C               1.99500000     -1.24939000      4.44719000       6
H              -2.15626000     -0.50686600     -4.67695000       1
N               1.73575000     -4.87344000     -0.63356600       7
H               3.81386000     -1.02421000      3.41938000       1
H              -1.01721000     -1.89264000     -4.76825000       1
H               0.85252100     -5.41164000     -0.64862000       1
I              -1.99695000     -4.99728000     -1.34974000      53
I               4.11397000      2.60287000     -2.79080000      53
H               2.31088000     -5.14579000      0.19075400       1
H               1.89489000     -4.63302000     -2.72060000       1
H               2.24902000     -0.51258100      5.21228000       1
H               0.79287600      5.60945000     -0.64862000       1
H               2.24598000     -2.25663000      4.78706000       1
I               0.23803400      2.04876000      5.36753000      53
H              -3.22902000     -2.64485000     -4.13239000       1
C               2.49653000     -5.03900000     -1.90560000       6
H               2.62028000      4.91827000     -2.05899000       1
H               3.43915000     -4.49373000     -1.82001000       1
I              -0.41346800     -5.30067000      2.81143000      53
P              -2.21707000      4.02104000     -3.91170000      15
H               5.37392000      2.39294000      1.36942000       1
I              -4.80544000      2.60287000     -2.79080000      53
P               2.10234000      4.22795000      3.94189000      15
H              -5.10555000     -1.02421000      3.41938000       1
H               2.34216000      1.21836000     -5.67364000       1
H               2.25123000      5.87530000      0.19075400       1
I              -0.47311200      5.72042000      2.81143000      53
N               1.67611000      6.14764000     -0.63356600       7
H               2.34521000      2.96241000     -5.24842000       1
I              -2.05659000      6.02380000     -1.34974000      53
H               5.68996000     -1.62103000     -2.77411000       1
I               3.97459000     -4.73828000      2.20673000      53
C               2.43689000      5.98209000     -1.90560000       6
C               2.09119000      2.22560000     -6.01351000       6
H               1.03078000      2.29145000     -6.26745000       1
P              -6.63682000      0.48755600     -1.37236000      15
H              -6.32534000      0.00967450      2.87325000       1
P              -2.31326000      0.54605400      6.54900000      15
H               2.67992000     -6.10282000     -2.05899000       1
N              -6.12499000     -0.95048400      3.22094000       7
H              -6.36569000     -1.61039000      2.45935000       1
C               6.40265000      2.73926000      1.49145000       6
I              -4.21215000      2.77475000      5.08776000      53
H               1.83525000      6.38806000     -2.72060000       1
I              -4.94482000     -4.73828000      2.20673000      53
I              -6.81693000      2.19797000      1.39091000      53
H               1.41002000      7.14524000     -0.48342500       1
H               7.20747000      1.15013000      0.38576300       1
H              -5.48026000     -4.49373000     -1.82001000       1
H              -2.25245000     -3.98186000      5.78375000       1
I              -2.38086000      2.29191000     -6.67388000      53
H               7.11402000      0.83815600      2.03747000       1
I               4.70726000      2.77475000      5.08776000      53
N               6.29044000     -2.14961000     -3.43944000       7
I               0.39386600     -5.49734000     -5.09317000      53
H               5.69039000     -2.64485000     -4.13239000       1
P               6.65504000     -3.24031000      1.32972000      15
I               0.33422200      5.52375000     -5.09317000      53
H               6.64963000      3.48094000      0.72848100       1
I               6.44236000     -1.18307000      3.78682000      53
H               3.37950000      6.52736000     -1.82001000       1
N               7.31875000      1.56928000      1.32823000       7
P               2.25817000     -3.31815000     -6.51881000      15
H               6.54924000      3.15594000      2.49056000       1
I               3.91494000      6.28281000      2.20673000      53
I              -6.63720000     -1.46412000     -3.91100000      53
I              -0.31728000     -1.82568000     -7.64926000      53
H               6.74796000     -2.90025000     -2.88459000       1
H              -2.21013000     -7.54014000      0.72848100       1
H              -1.11340000     -5.36763000      5.69245000       1
H              -1.17304000      5.65346000      5.69245000       1
C              -1.72223000     -4.74818000      6.35364000       6
P               2.16198000     -6.79314000      3.94189000      15
N               2.89061000      2.52451000     -7.23976000       7
P              -2.32402000      7.78078000      1.32972000      15
H               6.76315000     -0.50686600     -4.67695000       1
I              -0.47202600     -1.56780000      8.07612000      53
I              -4.05631000     -4.77134000     -5.37294000      53
H              -6.29913000      4.91827000     -2.05899000       1
P              -2.15743000     -7.00004000     -3.91170000      15
C              -6.92440000     -1.24939000      4.44719000       6
I              -5.00446000      6.28281000      2.20673000      53
H              -6.60853000     -5.14579000      0.19075400       1
C              -6.42288000     -5.03900000     -1.90560000       6
H              -1.09870000     -4.29221000      7.12472000       1
H              -7.44974000     -3.87585000     -0.48342500       1
H               3.91004000      2.45078000     -7.04131000       1
H               1.73906000      2.91308000      7.74010000       1
C               7.29337000     -1.27319000     -4.10705000       6
H              -6.67039000     -0.51258100      5.21228000       1
I               2.18602000     -4.93911000      6.54970000      53
H              -6.67343000     -2.25663000      4.78706000       1
H              -2.31052000     -7.86515000      2.49056000       1
H               7.91690000     -0.81722000     -3.33597000       1
H               2.64991000      1.86460000     -8.00135000       1
I              -8.46177000     -1.68962000      0.29846100      53
H               8.31366000      1.85429000      1.42867000       1
I               6.92246000     -4.99728000     -1.34974000      53
I               4.86309000     -4.77134000     -5.37294000      53
H              -3.38485000      4.90125000      6.32831000       1
I               4.01778000     -0.87212200      7.66989000      53
N              -7.18366000     -4.87344000     -0.63356600       7
P               6.70234000      4.02104000     -3.91170000      15
H              -5.53990000      6.52736000     -1.82001000       1
C              -2.45711000     -8.28183000      1.49145000       6
H              -6.57724000      1.21836000     -5.67364000       1
H               2.69026000      3.48466000     -7.58745000       1
H              -7.02451000     -4.63302000     -2.72060000       1
H              -6.66817000      5.87530000      0.19075400       1
H               2.52409000      1.44328000      8.40171000       1
H              -2.23109000      8.12083000     -2.88459000       1
H              -6.57420000      2.96241000     -5.24842000       1
P              -6.81707000      4.22795000      3.94189000      15
H              -6.23949000     -6.10282000     -2.05899000       1
H              -5.00936000      2.45078000     -7.04131000       1
C              -6.48252000      5.98209000     -1.90560000       6
I               8.54357000      1.90719000     -2.38457000      53
H              -7.98481000     -1.18354000      4.19325000       1
C              -1.78187000      6.27291000      6.35364000       6
I              -4.90163000     -0.87212200      7.66989000      53
H              -2.32728000      4.64584000      7.57610000       1
I               2.12637000      6.08198000      6.54970000      53
I               2.16212000     -8.82311000      1.39091000      53
I              -4.11596000      6.24974000     -5.37294000      53
C               2.34070000      2.50710000      8.55510000       6
I               6.86281000      6.02380000     -1.34974000      53
N              -2.78480000      5.39649000      7.02125000       7
I               4.07077000     -1.26329000     -8.25397000      53
H              -0.54610600     -9.16680000      1.42867000       1
P               6.60615000      0.54605400      6.54900000      15
I               0.39799400      9.33147000      0.29846100      53
H              -2.21433000     -4.39016000     -7.97014000       1
C              -6.82822000      2.22560000     -6.01351000       6
P              -2.16818000      0.23467800     -9.13098000      15
H              -2.31209000      7.03923000      5.78375000       1
N              -2.72516000     -5.62459000      7.02125000       7
H              -3.48584000     -8.62815000      1.36942000       1
H              -3.32520000     -6.11984000      6.32831000       1
H               7.90220000     -1.89264000     -4.76825000       1
I              -0.31619400     -9.11389000     -2.38457000      53
N              -7.24330000      6.14764000     -0.63356600       7
I               9.37704000     -1.68962000      0.29846100      53
I               4.80345000      6.24974000     -5.37294000      53
H              -1.70920000      4.31315000     -8.42323000       1
I               6.53855000      2.29191000     -6.67388000      53
I              -4.84863000     -1.26329000     -8.25397000      53
N              -1.54101000     -9.45181000      1.32823000       7
H               6.66696000     -3.98186000      5.78375000       1
I              -2.15278000      2.54881000      9.11095000      53
H               5.53456000      4.90125000      6.32831000       1
H               3.28332000      3.05237000      8.64068000       1
H              -8.06689000     -5.41164000     -0.64862000       1
N              -6.02880000      2.52451000     -7.23976000       7
I              -9.29524000      1.90719000     -2.38457000      53
I               4.17361000     -8.41822000     -2.79080000      53
H              -3.32563000     -5.09602000      7.68659000       1
H              -9.52516000      1.85429000      1.42867000       1
P               2.18640000     -2.98743000      9.08834000      15
H              -1.15834000      6.72888000      7.12472000       1
N              -2.68861000      8.87148000     -3.43944000       7
P              -6.66124000     -3.31815000     -6.51881000      15
H              -8.12653000      5.60945000     -0.64862000       1
H              -3.28866000      8.37624000     -4.13239000       1
H               2.40485000     -8.05868000     -5.24842000       1
H              -7.08416000      6.38806000     -2.72060000       1
H              -1.65229000     -9.87095000      0.38576300       1
H               2.49407000      9.41070000      2.45935000       1
I              -4.74580000     -8.41822000     -2.79080000      53
H               0.69668800      2.13446000      9.81208000       1
H               6.70927000     -7.54014000      0.72848100       1
H              -2.26763000     -6.37524000      7.57610000       1
H               2.18633000      8.76445000      4.78706000       1
H              -3.38528000      5.92507000      7.68659000       1
