200
cutoff_factor=1.20000000 nneightol=1.20000000 Lattice="28.86844000       0.00000000       0.00000000       0.00000000      28.42824000       0.00000000       0.00000000       0.00000000      28.73288000" Properties=species:S:1:pos:R:3:Z:I:1
P              -0.36813000      0.12594700      0.52449700      15
I               2.55179000     -0.84016000     -0.08039880      53
I              -1.50395000      1.71110000     -1.88588000      53
I              -0.94645900     -2.63683000     -1.20478000      53
I               0.63335200      2.62291000      2.08745000      53
I              -1.50417000     -1.34910000      3.00368000      53
H               2.48497000      2.44496000     -2.04935000       1
H              -1.79731000     -1.39207000     -3.44144000       1
H               3.49703000      0.96537900     -2.16548000       1
P               2.08265000     -3.60053000     -1.80819000      15
H              -1.79750000     -4.10428000      0.89248900       1
H               2.48470000     -1.17531000      3.73514000       1
C               3.46028000      2.04324000     -2.33290000       6
H               3.49676000     -1.92641000      2.45510000       1
H              -3.99277000      2.28947000     -1.67734000       1
H              -1.96474000      4.34479000      1.16034000       1
H              -1.05459000     -0.78816600     -4.83534000       1
N              -1.90110000     -1.26366000     -4.47052000       7
H               4.34219000      2.55807000     -0.46278000       1
H              -1.96483000      2.54188000      4.04141000       1
C               3.45999000     -1.60598000      3.49776000       6
I              -4.18629000      2.48282000      1.99976000      53
H              -1.02905000      5.17532000     -0.12473600       1
H              -3.99303000     -0.90888200      3.43289000       1
H               4.34205000      0.30101100      3.14364000       1
H              -2.70479000     -0.62825400     -4.65908000       1
N               4.50120000      2.69006000     -1.48532000       7
H               3.67721000      2.27225000     -3.37841000       1
N              -1.90139000     -4.97383000      1.45759000       7
H              -1.05491000     -5.09431000      2.04471000       1
C              -1.88543000      5.24643000      0.54965600       6
I               3.01448000     -2.16522000     -4.34048000      53
H              -5.09204000      2.55807000     -0.46278000       1
H              -1.02921000      1.74875000      5.34997000       1
N              -4.93302000      2.69006000     -1.48532000       7
P              -1.17702000      3.58586000     -4.43815000      15
N               4.50096000     -0.56104900      3.70925000       7
H              -2.70510000     -4.86577000      2.11149000       1
C              -1.88557000      2.38645000      5.11926000       6
H              -5.09217000      0.30101100      3.14364000       1
H              -1.25309000     -3.22823000     -4.89369000       1
I               0.52289400      1.33883000     -5.84458000      53
H               3.67687000     -2.44630000      4.16064000       1
I               3.01414000     -5.25079000      0.58970000      53
H              -2.80547000      5.40853000     -0.01668610       1
C              -2.10946000     -2.59053000     -5.12440000       6
H               4.57051000      3.70602000     -1.70151000       1
H               5.44145000      2.28947000     -1.67734000       1
I               5.24794000      2.48282000      1.99976000      53
N              -4.93326000     -0.56104900      3.70925000       7
P               3.06839000      4.44597000      3.22856000      15
H              -1.25340000     -6.21276000     -0.12473600       1
H              -4.86372000      3.70602000     -1.70151000       1
I               1.25160000      5.23512000     -3.40580000      53
H              -3.02952000     -3.02915000     -4.73123000       1
H              -5.93720000      0.96537900     -2.16548000       1
H              -2.80564000      1.94783000      5.51243000       1
H               5.44119000     -0.90888200      3.43289000       1
C              -2.10979000     -6.14165000      0.54965600       6
P              -1.17749000     -2.82524000      5.80551000      15
H               4.57025000     -0.31151600      4.71754000       1
H              -0.83055400      6.29377000      2.04471000       1
H              -3.02982000     -5.97956000     -0.01668610       1
H              -5.93747000     -1.92641000      2.45510000       1
C              -5.97394000      2.04324000     -2.33290000       6
I               0.52242100     -5.07227000      4.39908000      53
H              -4.86398000     -0.31151600      4.71754000       1
N              -1.67704000      6.41425000      1.45759000       7
H              -0.83070700      4.18882000      5.40832000       1
I              -6.88244000     -0.84016000     -0.08039880      53
I               3.23850000      6.13729000      0.58970000      53
H              -2.18872000     -2.43510000     -6.20225000       1
I               1.25113000     -1.17598000      6.83786000      53
H              -5.75701000      2.27225000     -3.37841000       1
N              -1.67722000      3.71332000      5.77314000       7
C              -5.97423000     -1.60598000      3.49776000       6
I               1.02725000     -6.15297000     -3.40580000      53
I              -4.03119000      1.39507000     -5.80953000      53
I              -3.47638000      5.38807000     -3.31021000      53
H              -2.48074000      6.52231000      2.11149000       1
I               3.23836000      2.81177000      5.90318000      53
H              -2.18910000     -7.04330000      1.16034000       1
H              -2.48090000      4.34873000      5.58458000       1
H              -1.57315000      7.28380000      0.89248900       1
H              -5.75736000     -2.44630000      4.16064000       1
P               2.84451000     -0.53101000     -7.01510000      15
H              -6.94926000      2.44496000     -2.04935000       1
I               0.74677800      6.31581000      4.39908000      53
I              -3.70074000     -6.00002000     -3.31021000      53
I              -4.03167000     -5.01603000      4.43413000      53
I              -3.47685000     -1.02303000      6.93345000      53
H              -1.57343000      3.58491000      6.80222000       1
H              -6.94952000     -1.17531000      3.73514000       1
I              -6.41974000     -2.16522000     -4.34048000      53
I               5.40303000      1.39507000     -5.80953000      53
H               3.67734000      3.96480000     -6.08302000       1
P               2.84403000     -6.94211000      3.22856000      15
H               6.72944000     -0.62825400     -4.65908000       1
I              -6.42008000     -5.25079000      0.58970000      53
P               2.30700000      7.78755000     -1.80819000      15
I               7.93028000      1.71110000     -1.88588000      53
H              -1.05444000      1.31679000     -8.19895000       1
P              -7.35158000     -3.60053000     -1.80819000      15
P              -6.36583000      4.44597000      3.22856000      15
H               7.63691000     -1.39207000     -3.44144000       1
I               0.40946800     -2.35407000     -8.15621000      53
H               6.40470000     -3.02915000     -4.73123000       1
H               6.62876000      5.40853000     -0.01668610       1
H               6.72913000     -4.86577000      2.11149000       1
I               7.93006000     -1.34910000      3.00368000      53
I               5.40256000     -5.01603000      4.43413000      53
I              -3.80731000      6.37205000      4.43413000      53
I               5.95784000      5.38807000     -3.31021000      53
H              -2.70462000      1.54533000     -8.13217000       1
H               2.48517000      5.23579000     -6.50852000       1
H               7.63672000     -4.10428000      0.89248900       1
H               7.46948000      4.34479000      1.16034000       1
I              -6.19573000      6.13729000      0.58970000      53
H               6.40440000     -5.97956000     -0.01668610       1
H               4.34636000     -5.28850000     -5.52612000       1
H               3.67674000     -4.13885000      6.86525000       1
H               6.62859000      1.94783000      5.51243000       1
N               7.53312000     -1.26366000     -4.47052000       7
P               2.30653000      1.37645000      8.43547000      15
I              -0.72210200      8.75126000     -1.20478000      53
H               7.46939000      2.54188000      4.04141000       1
I               5.73349000     -6.00002000     -3.31021000      53
I              -1.50369000      5.06200000     -7.23998000      53
I               8.48777000     -2.63683000     -1.20478000      53
C               3.46046000      4.80512000     -6.74590000       6
H               4.34615000     -7.68206000     -1.70151000       1
I              -6.19586000      2.81177000      5.90318000      53
I               0.40899500     -8.76517000      2.08745000      53
H              -1.05506000     -7.19927000      5.40832000       1
P               9.06609000      0.12594700      0.52449700      15
P              -1.40137000     -7.80222000     -4.43815000      15
N              -1.90092000      1.43727000     -8.78607000       7
N               7.53283000     -4.97383000      1.45759000       7
H              -5.08786000     -5.28850000     -5.52612000       1
I               5.95737000     -1.02303000      6.93345000      53
C               7.54880000      5.24643000      0.54965600       6
H               2.26082000     -6.15229000     -6.50852000       1
H              -5.75688000      3.96480000     -6.08302000       1
C               7.32477000     -2.59053000     -5.12440000       6
H              -2.18863000     -0.63219600     -9.08331000       1
I              -0.72257400      2.34016000      9.03888000      53
H              -5.08807000     -7.68206000     -1.70151000       1
H              -2.70526000     -7.03935000      5.58458000       1
H               4.57072000      6.09958000     -5.52612000       1
I              -8.80087000      2.62291000      2.08745000      53
C               7.54865000      2.38645000      5.11926000       6
H               2.48449000     -3.96614000      8.19431000       1
H               4.11817000     -4.67597000     -7.10002000       1
H               2.26061000     -8.94312000     -2.04935000       1
H              -4.86351000      6.09958000     -5.52612000       1
H              -1.02873000      8.15985000     -4.89369000       1
N               4.27708000     -5.53803000     -6.53441000       7
C               7.32444000     -6.14165000      0.54965600       6
I               5.62692000      6.37205000      4.43413000      53
H              -3.99256000      5.50222000     -6.81077000       1
P              -6.58972000     -0.53101000     -7.01510000      15
H               3.49723000      4.48469000     -7.78856000       1
C               3.45981000     -4.36786000      7.91076000       6
I              -4.41017000     -2.49416000     -8.24390000      53
I              -1.50442000     -4.70000000      8.35778000      53
H               8.37963000     -0.78816600     -4.83534000       1
H               4.11783000     -8.83001000     -0.46278000       1
H               6.95349000      6.52231000      2.11149000       1
I              -1.72805000     -6.32608000     -7.23998000      53
N              -1.90158000     -7.67476000      5.77314000       7
H              -1.79703000      2.30682000     -9.35117000       1
N               4.27685000     -8.69802000     -1.48532000       7
P              -9.80235000      0.12594700      0.52449700      15
H               7.24551000     -2.43510000     -6.20225000       1
N               4.50144000      5.85005000     -6.53441000       7
H              -5.75748000     -4.13885000      6.86525000       1
H               8.40518000      5.17532000     -0.12473600       1
H               6.95332000      4.34873000      5.58458000       1
C              -2.10931000      0.26944600     -9.69400000       6
H              -4.21691000     -5.88586000     -6.81077000       1
C               3.23611000     -6.58297000     -6.74590000       6
H              -2.18919000     -8.84620000      4.04141000       1
I               5.02405000     -2.49416000     -8.24390000      53
N              -5.15715000     -5.53803000     -6.53441000       7
H              -2.80517000      8.35893000     -4.73123000       1
I              -1.72830000     -9.67698000     -1.88588000      53
H               8.37931000     -5.09431000      2.04471000       1
H              -5.31605000     -4.67597000     -7.10002000       1
P               8.25721000      3.58586000     -4.43815000      15
H               4.57003000     -2.70508000      8.54215000       1
N              -4.93279000      5.85005000     -6.53441000       7
H               8.18113000     -3.22823000     -4.89369000       1
P              -6.59019000     -6.94211000      3.22856000      15
H               8.40502000      1.74875000      5.34997000       1
I              -4.41064000     -8.90526000      1.99976000      53
C               3.23592000     -9.34485000     -2.33290000       6
H              -4.21713000     -9.09861000     -1.67734000       1
N               7.75719000      6.41425000      1.45759000       7
H               7.24512000     -7.04330000      1.16034000       1
I               3.01461000      1.16031000     -9.65396000      53
