200
cutoff_factor=1.20000000 nneightol=1.20000000 Lattice="28.85351000       0.00000000       0.00000000       0.00000000      29.34621000       0.00000000       0.00000000       0.00000000      28.38961000" Properties=species:S:1:pos:R:3:Z:I:1
I              -0.18975300     -1.88061000      0.78413500      53
P              -1.97083000      0.76696100      0.73994800      15
H               2.09862000      0.27288500     -1.02881000       1
H               0.90128600      0.40264500     -2.20031000       1
I               0.72724300      2.56878000      0.67666900      53
N               1.90512000      0.17884900     -2.04573000       7
I              -1.70619000      0.90789800     -2.53572000      53
H               2.07506000     -0.81327100     -2.30472000       1
H               2.66689000      0.89977000      2.58659000       1
H              -2.06056000     -2.33226000     -2.50888000       1
C               2.79004000      1.10631000     -2.81097000       6
H               2.58598000      2.12788000     -2.48247000       1
I               4.26510000     -0.99080500      0.65092300      53
I              -1.76871000      0.95566700      3.94553000      53
H               0.86136000      1.38292000      4.13987000       1
P               2.51055000     -3.66473000      0.73413700      15
H              -1.52490000      3.61657000     -2.32104000       1
H              -0.36544600     -4.03896000     -2.18190000       1
H              -1.59521000     -4.19720000     -1.04210000       1
H               2.53622000     -0.35502600      3.86311000       1
C               2.78578000      0.68712200      3.65132000       6
H               3.82940000      0.83920600     -2.60676000       1
H               2.56901000      0.99565300     -3.87484000       1
I              -4.61613000     -0.99080500      0.65092300      53
I               2.23561000     -3.50343000     -2.52629000      53
N              -1.37022000     -4.27410000     -2.05398000       7
C              -2.24796000     -3.35644000     -2.83903000       6
H              -0.75552600     -2.56700000      4.20222000       1
N               1.84924000      1.56160000      4.41311000       7
H              -1.59762000      4.68578000     -1.04210000       1
H              -2.73816000     -3.14154000      2.93180000       1
I              -3.73194000      3.44281000      0.57340300      53
N              -1.37263000      4.60889000     -2.05398000       7
H              -0.36786300      4.84403000     -2.18190000       1
H               2.05800000      2.56555000      4.23776000       1
H              -1.56816000      4.38444000      2.98475000       1
H              -3.28867000     -3.63337000     -2.65588000       1
H               3.80553000      0.90918600      3.97387000       1
H              -2.00440000     -3.46762000     -3.89780000       1
H              -1.56575000     -4.49855000      2.98475000       1
C              -2.25583000     -3.88594000      3.56953000       6
H              -5.05184000      0.83920600     -2.60676000       1
N              -1.47808000     -3.17330000      4.62184000       7
P               2.50814000      5.21826000      0.73413700      15
I               2.43456000     -3.69638000      3.94155000      53
H               1.94675000      1.39020000      5.43206000       1
H              -1.52248000     -5.26642000     -2.32104000       1
I              -0.21213400     -1.82232000     -5.82025000      53
P              -1.90187000      0.87030800     -5.74357000      15
H              -2.11226000     -2.59545000      5.21687000       1
I               5.14929000      3.44281000      0.57340300      53
I               2.23320000      5.37956000     -2.52629000      53
I               0.72966000     -6.31421000      0.67666900      53
I               0.72253600      2.62728000     -5.89778000      53
H              -5.07570000      0.90918600      3.97387000       1
C              -2.25825000      4.99705000      3.56953000       6
H              -1.01850000     -3.84703000      5.27034000       1
C              -2.25038000      5.52655000     -2.83903000       6
I              -3.72952000     -5.44017000      0.57340300      53
H              -3.00712000      4.36892000      4.05752000       1
H              -3.29109000      5.24962000     -2.65588000       1
H              -3.00470000     -4.51407000      4.05752000       1
H              -6.21435000      0.89977000      2.58659000       1
C              -6.09119000      1.10631000     -2.81097000       6
H              -6.78261000      0.27288500     -1.02881000       1
I               2.43215000      5.18661000      3.94155000      53
H              -2.00681000      5.41537000     -3.89780000       1
P               6.91040000      0.76696100      0.73994800      15
H              -2.74058000      5.74145000      2.93180000       1
I              -0.19217000      7.00237000      0.78413500      53
H              -6.29525000      2.12788000     -2.48247000       1
C              -6.09545000      0.68712200      3.65132000       6
P               2.41336000     -3.57187000     -5.73962000      15
H               5.59256000     -3.63337000     -2.65588000       1
I               4.27943000     -0.94754600     -5.71316000      53
H              -6.80617000     -0.81327100     -2.30472000       1
N              -6.97611000      0.17884900     -2.04573000       7
I               0.72577200     -0.84634800      7.19125000      53
H              -2.06298000      6.55073000     -2.50888000       1
H              -1.02092000      5.03595000      5.27034000       1
P              -6.37068000     -3.66473000      0.73413700      15
I              -4.60180000     -0.94754600     -5.71316000      53
H              -6.34501000     -0.35502600      3.86311000       1
H              -6.31222000      0.99565300     -3.87484000       1
N              -1.48049000      5.70969000      4.62184000       7
H               6.14307000     -3.14154000      2.93180000       1
P              -1.97270000      0.97690400      7.17737000      15
I               5.15171000     -5.44017000      0.57340300      53
H              -0.75794300      6.31599000      4.20222000       1
H               6.82067000     -2.33226000     -2.50888000       1
H               2.58839000     -6.75511000     -2.48247000       1
I               7.17504000      0.90789800     -2.53572000      53
I              -3.77182000      3.48787000     -5.72574000      53
H               2.06042000     -6.31744000      4.23776000       1
I              -6.64562000     -3.50343000     -2.52629000      53
C               6.63327000     -3.35644000     -2.83903000       6
I              -0.10662400      3.60123000      7.20383000      53
I              -3.66111000     -1.70693000      7.01922000      53
H               5.59014000      5.24962000     -2.65588000       1
P               2.41095000      5.31112000     -5.73962000      15
I               7.11252000      0.95566700      3.94553000      53
H               2.27139000      1.73877000     -7.70012000       1
P              -6.37310000      5.21826000      0.73413700      15
H              -7.97995000      0.40264500     -2.20031000       1
H               3.36514000      0.48718000     -7.64665000       1
H               5.87411000      4.36892000      4.05752000       1
P               2.59572000     -3.46391000      7.17343000      15
P              -1.96842000     -8.11603000      0.73994800      15
I              -6.44667000     -3.69638000      3.94155000      53
I               5.10941000      3.48787000     -5.72574000      53
H              -6.82323000      2.56555000      4.23776000       1
H              -2.11467000      6.28754000      5.21687000       1
N              -7.03199000      1.56160000      4.41311000       7
H               5.87653000     -4.51407000      4.05752000       1
C               6.62540000     -3.88594000      3.56953000       6
H               7.28603000     -4.19720000     -1.04210000       1
H              -2.54843000     -3.15857000     -7.48493000       1
H               7.35634000      3.61657000     -2.32104000       1
I              -1.70378000     -7.97509000     -2.53572000      53
I              -8.15399000      2.56878000      0.67666900      53
H               0.86377700     -7.50007000      4.13987000       1
I               0.72495300     -6.25571000     -5.89778000      53
H               6.87684000     -3.46762000     -3.89780000       1
H               2.07264000      8.06972000     -2.30472000       1
H               7.28361000      4.68578000     -1.04210000       1
I              -3.76940000     -5.39512000     -5.72574000      53
I               4.28304000      2.72645000      7.09674000      53
C               2.79246000     -7.77668000     -2.81097000       6
N               1.85165000     -7.32139000      4.41311000       7
H               2.66930000     -7.98322000      2.58659000       1
H               0.90370300     -8.48034000     -2.20031000       1
N               2.90557000      1.16092000     -8.29515000       7
N               7.51101000     -4.27410000     -2.05398000       7
I              -4.59819000      2.72645000      7.09674000      53
H               6.14065000      5.74145000      2.93180000       1
I               5.22013000     -1.70693000      7.01922000      53
I              -6.64803000      5.37956000     -2.52629000      53
H              -6.93449000      1.39020000      5.43206000       1
H               2.10104000     -8.61010000     -1.02881000       1
I               8.69148000     -1.88061000      0.78413500      53
H               6.76898000     -2.59545000      5.21687000       1
I              -0.10420800     -5.28176000      7.20383000      53
H               1.37894000     -0.17985700     -8.85947000       1
I               4.26269000      7.89218000      0.65092300      53
I              -1.76630000     -7.92732000      3.94553000      53
C               6.62298000      4.99705000      3.56953000       6
H               7.31307000      4.38444000      2.98475000       1
N               7.50860000      4.60889000     -2.05398000       7
P               6.97936000      0.87030800     -5.74357000      15
C               6.63085000      5.52655000     -2.83903000       6
H               7.31549000     -4.49855000      2.98475000       1
H              -8.01987000      1.38292000      4.13987000       1
N               1.90754000     -8.70414000     -2.04573000       7
I              -0.21455100      7.06066000     -5.82025000      53
H               2.57143000     -7.88734000     -3.87484000       1
I              -6.44908000      5.18661000      3.94155000      53
I              -4.61855000      7.89218000      0.65092300      53
H              -2.43717000     -1.98322000     -8.67923000       1
I              -2.06303000      0.63783600     -8.97544000      53
H               3.83181000     -8.04378000     -2.60676000       1
N               7.40316000     -3.17330000      4.62184000       7
I              -9.07099000     -1.88061000      0.78413500      53
H               7.35875000     -5.26642000     -2.32104000       1
P              -6.46787000     -3.57187000     -5.73962000      15
P               2.59330000      5.41908000      7.17343000      15
I               5.11183000     -5.39512000     -5.72574000      53
N              -2.64594000     -2.98718000     -8.50388000       7
C               2.78820000     -8.19587000      3.65132000       6
H               2.49078000      1.08116000      9.01919000       1
H              -5.51609000      0.48718000     -7.64665000       1
H               2.09620000      9.15587000     -1.02881000       1
H               1.94916000     -7.49279000      5.43206000       1
N               1.90270000      9.06184000     -2.04573000       7
H               8.12571000     -2.56700000      4.20222000       1
H              -6.29284000     -6.75511000     -2.48247000       1
H               6.87442000      5.41537000     -3.89780000       1
H               0.89886900      9.28563000     -2.20031000       1
C               2.12781000      0.44827600     -9.34746000       6
H               3.62812000      1.76722000     -8.71478000       1
H               8.51579000     -4.03896000     -2.18190000       1
H              -0.68964000     -3.63959000     -8.94313000       1
H               3.80795000     -7.97380000      3.97387000       1
H               2.53380000      8.52796000      3.86311000       1
H              -2.55084000      5.72442000     -7.48493000       1
H               6.81826000      6.55073000     -2.50888000       1
H              -1.81463000     -3.33856000      9.04215000       1
H              -5.04942000     -8.04378000     -2.60676000       1
P              -1.97325000      9.64995000      0.73994800      15
I               9.60848000      2.56878000      0.67666900      53
P               6.90854000      0.97690400      7.17737000      15
I               2.61734000     -3.59311000     -8.97147000      53
H              -3.63381000     -3.16585000     -8.77712000       1
H               9.78252000      0.40264500     -2.20031000       1
H               8.51337000      4.84403000     -2.18190000       1
P              -1.89945000     -8.01268000     -5.74357000      15
H              -1.96137000      3.97919000     -9.05388000       1
P              -6.28551000     -3.46391000      7.17343000      15
P              -6.47029000      5.31112000     -5.73962000      15
H               2.07748000     -9.69626000     -2.30472000       1
C              -1.70939000     -3.86165000     -9.26567000       6
