200
cutoff_factor=1.20000000 nneightol=1.20000000 Lattice="28.84527000       0.00000000       0.00000000       0.00000000      27.88139000       0.00000000       0.00000000       0.00000000      29.20297000" Properties=species:S:1:pos:R:3:Z:I:1
P               0.10970200     -1.07849000      0.00109781      15
I               1.99890000      1.49835000     -0.32712200      53
I              -2.35927000      0.94603600      0.41337500      53
H               0.60674600      2.67987000      1.59991000       1
I               0.64006500     -0.98812700      3.20761000      53
I              -0.53383200     -1.27033000     -3.15281000      53
H              -0.69330600      2.93799000     -2.50944000       1
I               2.65207000     -3.07885000     -0.42769800      53
I              -1.75133000     -3.68496000      0.44958200      53
H              -1.33209000      2.41870000      3.03879000       1
N               0.39780000      3.39254000      2.32713000       7
H               0.92891000      3.58135000     -2.08568000       1
H               0.19345000      1.98101000      3.87740000       1
H               3.20087000     -0.14542300     -3.04844000       1
C              -0.38905400      2.79508000      3.44133000       6
H              -3.89184000     -0.86837900      2.07324000       1
H              -0.13833800      4.15943000      1.86662000       1
C              -0.01214280      3.78727000     -2.59838000       6
H              -4.13987000      0.24065600     -2.13381000       1
H              -3.12953000     -1.75761000     -3.03810000       1
H              -3.00357000     -2.04355000      3.09946000       1
H               1.31957000      3.74184000      2.66453000       1
H               3.13414000     -0.90991400      3.67728000       1
H              -0.41855400     -4.44141000     -2.19799000       1
C              -3.98759000     -1.70301000      2.76908000       6
H               4.69581000      0.24065600     -2.13381000       1
H              -0.47334200      4.69233000     -2.19799000       1
H               4.26332000     -2.13534000     -2.21236000       1
C               4.29084000     -0.21776300     -3.03856000       6
H              -0.08354960     -4.97431000      1.86662000       1
N              -4.16674000     -1.65857000     -3.04653000       7
H               4.94384000     -0.86837900      2.07324000       1
C              -4.54485000     -0.21776300     -3.03856000       6
H               4.29552000     -2.52221000      2.30452000       1
P              -4.29879000      3.44012000      0.02533780      15
H              -4.57237000     -2.13534000     -2.21236000       1
H              -0.57309100      3.57080000      4.18586000       1
H               0.68547500      3.16054000     -4.49081000       1
H              -4.54017000     -2.52221000      2.30452000       1
P               4.53690000      3.44012000      0.02533780      15
H              -4.12242000      0.25503400     -3.92796000       1
N               0.28193200      4.01180000     -4.04136000       7
I              -1.80612000      5.44877000      0.44958200      53
N               4.66894000     -1.65857000     -3.04653000       7
N               4.08420000     -1.23455000      3.95957000       7
C               4.84810000     -1.70301000      2.76908000       6
C               0.04264530     -5.34646000     -2.59838000       6
H               0.98369800     -5.55238000     -2.08568000       1
I              -3.77839000      3.45194000     -3.15798000      53
H               1.02115000     -4.35546000     -4.17710000       1
H               4.71327000      0.25503400     -3.92796000       1
H               4.27896000     -2.13031000     -3.88750000       1
H              -4.23808000     -0.47312000      4.45346000       1
H               1.37435000     -5.39190000      2.66453000       1
I               3.82762000      3.66141000      3.19647000      53
N               0.45258800     -5.74120000      2.32713000       7
H              -0.57301400      4.27911000     -4.56824000       1
N              -4.75149000     -1.23455000      3.95957000       7
H              -4.55673000     -2.13031000     -3.88750000       1
P               0.06440340     -1.03680000     -6.29944000      15
I               1.96331000      1.54349000     -5.89402000      53
H               3.93773000     -2.00143000      4.64038000       1
H              -5.63481000     -0.14542300     -3.04844000       1
H               4.59760000     -0.47312000      4.45346000       1
H               0.96635900      4.77828000     -4.17710000       1
P              -0.07482390     -1.06944000      6.34566000      15
I              -2.61075000      0.83550000      5.89457000      53
N               0.33672000     -5.12194000     -4.04136000       7
I               6.47641000      0.94603600      0.41337500      53
I               2.59728000      6.05489000     -0.42769800      53
H               0.66153400     -6.45386000      1.59991000       1
H              -0.51822600     -4.85463000     -4.56824000       1
H               5.70615000     -1.75761000     -3.03810000       1
H              -0.63851800     -6.19574000     -2.50944000       1
H              -5.70155000     -0.90991400      3.67728000       1
I               5.05730000      3.45194000     -3.15798000      53
H               5.83212000     -2.04355000      3.09946000       1
I              -6.18362000     -3.07885000     -0.42769800      53
I              -5.00807000      3.66141000      3.19647000      53
H              -0.51830300     -5.56294000      4.18586000       1
I              -6.83678000      1.49835000     -0.32712200      53
H              -4.89796000     -2.00143000      4.64038000       1
I               2.71776000     -2.99381000     -5.81701000      53
P              -4.24400000     -5.69362000      0.02533780      15
I               1.82409000      1.51085000      6.75108000      53
C              -0.33426600     -6.33866000      3.44133000       6
I              -2.47152000      0.86814500     -6.75053000      53
I              -1.87388000     -3.72941000      5.99983000      53
P               4.59169000     -5.69362000      0.02533780      15
I               3.88241000     -5.47233000      3.19647000      53
H              -1.27730000     -6.71504000      3.03879000       1
I              -3.72360000     -5.68179000     -3.15798000      53
H               0.74026300     -5.97319000     -4.49081000       1
I              -1.73465000     -3.69676000     -6.64527000      53
I               2.57853000     -3.02645000      6.82809000      53
I               2.05369000     -7.63538000     -0.32712200      53
I               7.08436000     -3.68496000      0.44958200      53
I              -4.95328000     -5.47233000      3.19647000      53
P               0.05491420      8.05524000      0.00109781      15
H               0.24823800     -7.15273000      3.87740000       1
H               4.24073000      6.61153000      2.30452000       1
I               5.11209000     -5.68179000     -3.15798000      53
I              -1.92867000      5.40433000      5.99983000      53
H              -3.05835000      7.09019000      3.09946000       1
H              -4.59496000      6.61153000      2.30452000       1
P              -4.30093000      3.45099000     -6.31997000      15
P               4.39553000      3.41834000      6.32513000      15
H               7.50360000      2.41870000      3.03879000       1
P              -4.44015000      3.41834000      6.32513000      15
H               4.20853000      6.99839000     -2.21236000       1
I              -0.58862000      7.86341000     -3.15281000      53
P               4.53476000      3.45099000     -6.31997000      15
I              -2.30449000     -8.18770000      0.41337500      53
H              -3.18432000      7.37613000     -3.03810000       1
I               6.22494000      0.83550000      5.89457000      53
H              -4.62716000      6.99839000     -2.21236000       1
I              -6.23841000      6.05489000     -0.42769800      53
H               0.54624800      3.12790000      8.15429000       1
I              -1.78944000      5.43698000     -6.64527000      53
I               0.58527700      8.14561000      3.20761000      53
P              -8.72598000     -1.07849000      0.00109781      15
H              -8.22894000      2.67987000      1.59991000       1
H              -7.51612000      3.74184000      2.66453000       1
I              -8.19562000     -0.98812700      3.20761000      53
I               2.66297000      6.13993000     -5.81701000      53
C              -4.04237000      7.43072000      2.76908000       6
I               7.02957000      5.44877000      0.44958200      53
H              -7.90678000      3.58135000     -2.08568000       1
I              -6.11793000     -2.99381000     -5.81701000      53
I               8.30185000     -1.27033000     -3.15281000      53
H               0.33267700      2.01365000     -8.76770000       1
P               8.94539000     -1.07849000      0.00109781      15
H               8.14238000      2.93799000     -2.50944000       1
H               4.22417000      7.00343000     -3.88750000       1
N              -4.22153000      7.47517000     -3.04653000       7
H              -0.71224200      4.24646000      8.07686000       1
H              -4.09886000     -0.44047500     -8.19164000       1
I              -6.87237000      1.54349000     -5.89402000      53
H               4.07696000     -1.96878000     -8.00471000       1
H              -0.43386400      3.60344000     -8.45924000       1
H              -4.61151000      7.00343000     -3.88750000       1
C               4.79331000      7.43072000      2.76908000       6
N               4.61415000      7.47517000     -3.04653000       7
I               6.36417000      0.86814500     -6.75053000      53
H               3.88294000      7.13231000      4.64038000       1
N              -8.43789000      3.39254000      2.32713000       7
H              -3.94663000      8.26536000      2.07324000       1
H              -0.65745400     -4.88727000      8.07686000       1
H               4.73683000     -0.44047500     -8.19164000       1
N               0.14270500      3.97915000      8.60374000       7
P              -4.24614000     -5.68275000     -6.31997000      15
I               2.52374000      6.10728000      6.82809000      53
I               0.77929200     -0.95548200     -9.43749000      53
H              -4.75873000     -1.96878000     -8.00471000       1
H               3.07935000      8.22382000      3.67728000       1
C               8.44663000      2.79508000      3.44133000       6
H               0.88192000     -4.38810000      8.46800000       1
H              -7.46133000     -5.39190000      2.66453000       1
P              -4.38536000     -5.71539000      6.32513000      15
H               3.27336000     -0.87726900     -8.96782000       1
I              -0.67306000     -1.30298000      9.49229000      53
P               4.45032000     -5.71539000      6.32513000      15
C              -0.24982600      2.82772000     -9.20377000       6
H               5.77733000      7.09019000      3.09946000       1
P               4.58955000     -5.68275000     -6.31997000      15
H              -8.64224000      1.98101000      3.87740000       1
H              -4.26164000      0.22238900      8.71714000       1
N               4.02941000      7.89918000      3.95957000       7
N               4.22342000     -1.20191000     -8.68553000       7
H               0.82713200      4.74563000      8.46800000       1
I              -6.25715000     -3.02645000      6.82809000      53
H               8.41713000     -4.44141000     -2.19799000       1
H               5.65137000      7.37613000     -3.03810000       1
I               2.01810000     -7.59024000     -5.89402000      53
H               8.69735000      4.15943000      1.86662000       1
H               4.88906000      8.26536000      2.07324000       1
H              -8.15021000      3.16054000     -4.49081000       1
H               8.36234000      4.69233000     -2.19799000       1
H              -7.85199000     -5.55238000     -2.08568000       1
H              -4.95274000      7.13231000      4.64038000       1
H               4.57404000      0.22238900      8.71714000       1
I              -7.01160000      1.51085000      6.75108000      53
H              -7.81454000     -4.35546000     -4.17710000       1
N              -4.61226000     -1.20191000     -8.68553000       7
I               6.96181000     -3.72941000      5.99983000      53
H               4.13973000     -2.16295000      8.75760000       1
H               8.26260000      3.57080000      4.18586000       1
H               9.44243000      2.67987000      1.59991000       1
C               8.82354000      3.78727000     -2.59838000       6
I              -9.36952000     -1.27033000     -3.15281000      53
C              -8.84783000      3.78727000     -2.59838000       6
H              -1.19286000      2.45134000     -9.60631000       1
H               3.14608000      8.98831000     -3.04844000       1
H              -4.08509000     -8.89308000     -2.13381000       1
H               9.02914000      1.98101000      3.87740000       1
N               0.19749300     -5.15459000      8.60374000       7
I               9.47575000     -0.98812700      3.20761000      53
N              -4.80628000      7.89918000      3.95957000       7
H              -8.97402000      4.15943000      1.86662000       1
H               3.06165000     -0.17806800      9.59666000       1
