200
cutoff_factor=1.20000000 nneightol=1.20000000 Lattice="28.75708000       0.00000000       0.00000000       0.00000000      29.48804000       0.00000000       0.00000000       0.00000000      29.28788000" Properties=species:S:1:pos:R:3:Z:I:1
H              -0.57185000      0.76383000     -1.97480000       1
H               1.80227000      0.65594700     -1.59151000       1
I               2.43729000     -0.68615100      0.46430500      53
I              -2.03660000     -1.38830000      1.25980000      53
C               0.05752600      1.60775000     -2.26480000       6
H               0.07237490      2.36279000     -1.47628000       1
N               1.44630000      1.10864000     -2.46273000       7
H               0.15939300      1.38721000      2.90638000       1
H               0.91841200     -0.20218700      3.23443000       1
P               0.54501600     -3.33442000      0.80057900      15
H               1.49773000      0.40283700     -3.22685000       1
I              -1.30604000      3.13830000      1.12685000      53
C               0.31092700      0.60417200      3.65049000       6
H              -0.29200900      2.04308000     -3.20327000       1
H               2.07914000      1.88465000     -2.72830000       1
H              -0.64816900      0.21773100      4.00265000       1
P              -3.86164000      1.23777000      0.83001800      15
I              -0.13424500     -3.44408000     -2.35436000      53
I              -3.57608000      0.80644500     -2.37846000      53
H              -2.59806000     -3.03691000     -1.85178000       1
H              -3.72306000     -1.80409000     -1.82187000       1
N              -3.62242000     -2.83755000     -1.87118000       7
N               1.04108000      1.19350000      4.81082000       7
I               3.33029000      3.92416000      0.31499500      53
H               1.96542000      1.56750000      4.51036000       1
I               1.22648000     -3.26243000      3.95843000      53
P               5.07551000      1.23777000      0.83001800      15
H              -3.72732000     -2.58633000      2.72719000       1
H              -4.07572000     -3.27772000     -1.04729000       1
H               0.47979800      1.94118000      5.26934000       1
H               1.24064000      0.47048500      5.52830000       1
H               3.65826000     -3.13692000     -3.13198000       1
P               0.61812600      5.68461000      0.80057900      15
H               5.21409000     -1.80409000     -1.82187000       1
I               2.34352000     -1.00342000     -5.23497000      53
I               5.36107000      0.80644500     -2.37846000      53
H               4.86142000     -3.27772000     -1.04729000       1
H               3.74700000     -3.02827000      3.50971000       1
I              -0.06113470      5.57495000     -2.35436000      53
I               3.25718000     -5.09487000      0.31499500      53
I              -4.41443000      1.42386000      3.96210000      53
I              -1.37915000     -5.88074000      1.12685000      53
H              -3.71714000     -2.86889000     -3.97273000       1
I               4.52272000      1.42386000      3.96210000      53
C              -4.20941000     -3.35904000     -3.13138000       6
N              -4.24888000     -3.35367000      3.20278000       7
N               5.31473000     -2.83755000     -1.87118000       7
H              -2.49732000     -4.22989000      3.98346000       1
H               5.20983000     -2.58633000      2.72719000       1
H              -4.41841000     -4.09251000      2.49512000       1
I              -2.07533000     -1.50777000     -6.00598000      53
I              -6.49985000     -0.68615100      0.46430500      53
P               0.36029200     -3.52735000     -5.55021000      15
H               4.51873000     -4.09251000      2.49512000       1
C               4.72774000     -3.35904000     -3.13138000       6
N               4.68827000     -3.35367000      3.20278000       7
H              -2.42421000      4.78914000      3.98346000       1
H              -2.52495000      5.98212000     -1.85178000       1
I               2.83849000      3.38378000     -5.10994000      53
C              -3.46386000     -3.87961000      4.35303000       6
H              -4.04315000     -4.43801000     -3.16697000       1
I              -1.54026000      2.97624000     -5.91070000      53
H              -3.32991000     -3.07191000      5.07352000       1
H              -0.00073572     -6.65624000     -1.47628000       1
H              -3.97004000      4.58102000     -3.16697000       1
I              -5.60686000      3.92416000      0.31499500      53
H              -5.27889000     -3.13692000     -3.13198000       1
P              -3.99466000      0.96107800     -5.60130000      15
H              -5.19015000     -3.02827000      3.50971000       1
H              -4.34530000      4.92652000      2.49512000       1
I              -1.76378000     -1.27990000      6.69279000      53
H              -4.00261000      5.74131000     -1.04729000       1
I               1.29959000      5.75660000      3.95843000      53
I               6.90055000     -1.38830000      1.25980000      53
H               5.22001000     -2.86889000     -3.97273000       1
H               4.59184000      4.92652000      2.49512000       1
H               0.92909900      0.24261500     -7.17047000       1
H               6.33909000     -3.03691000     -1.85178000       1
H               4.89400000     -4.43801000     -3.16697000       1
H              -7.13488000      0.65594700     -1.59151000       1
N              -3.54931000      6.18148000     -1.87118000       7
H               4.96711000      4.58102000     -3.16697000       1
P               4.94249000      0.96107800     -5.60130000      15
C              -3.39075000      5.13942000      4.35303000       6
H              -3.94930000      4.31767000      4.80563000       1
I              -1.22871000      3.20411000      6.78807000      53
H              -6.85801000      1.88465000     -2.72830000       1
H               0.16825400      1.71331000     -7.42943000       1
I              -5.67997000     -5.09487000      0.31499500      53
H               3.73137000      5.88211000     -3.13198000       1
H               4.93454000      5.74131000     -1.04729000       1
C              -4.13630000      5.65999000     -3.13138000       6
H              -0.36512000     -6.97595000     -3.20327000       1
N              -4.17577000      5.66536000      3.20278000       7
C              -0.01558460     -7.41128000     -2.26480000       6
P               0.43340300      5.49168000     -5.55021000      15
H              -4.02241000     -4.70136000      4.80563000       1
H              -3.65421000      6.43270000      2.72719000       1
H               2.00602000     -7.13438000     -2.72830000       1
P               0.67183600     -3.29948000      7.14856000      15
H               3.82011000      5.99076000      3.50971000       1
I               2.65506000     -0.77554600      7.46380000      53
N              -7.49085000      1.10864000     -2.46273000       7
I              -1.96349000      7.63074000      1.25980000      53
N               0.72953500      0.96562600     -7.88794000       7
C               5.47329000     -3.87961000      4.35303000       6
C               4.80085000      5.65999000     -3.13138000       6
N               4.76138000      5.66536000      3.20278000       7
P              -3.68312000      1.18895000      7.09747000      15
I               2.76538000     -5.63526000     -5.10994000      53
H              -7.43942000      0.40283700     -3.22685000       1
H               4.98785000      4.31767000      4.80563000       1
H               5.60724000     -3.07191000      5.07352000       1
H               0.08628230     -7.63182000      2.90638000       1
H              -3.64403000      6.15014000     -3.97273000       1
H              -3.64995000      7.21494000     -1.82187000       1
H               4.91474000     -4.70136000      4.80563000       1
I               7.63111000      3.13830000      1.12685000      53
N               1.37319000     -7.91039000     -2.46273000       7
N               5.38784000      6.18148000     -1.87118000       7
H              -6.97173000      1.56750000      4.51036000       1
H              -5.20578000      5.88211000     -3.13198000       1
H               1.65387000      1.33963000     -8.18841000       1
H              -3.25680000      5.94712000      5.07352000       1
I              -6.59363000     -1.00342000     -5.23497000      53
H              -0.64496000     -8.25520000     -1.97480000       1
I              -1.61337000     -6.04279000     -5.91070000      53
H              -5.11704000      5.99076000      3.50971000       1
H               8.36530000      0.76383000     -1.97480000       1
I              -6.09866000      3.38378000     -5.10994000      53
H              -8.01874000     -0.20218700      3.23443000       1
H               6.43983000     -4.22989000      3.98346000       1
H               1.72916000     -8.36308000     -1.59151000       1
I               2.51040000      8.33288000      0.46430500      53
C               5.54640000      5.13942000      4.35303000       6
H              -0.95971300     -0.01014000     -8.69612000       1
P              -3.93475000     -7.78126000      0.83001800      15
H               5.28294000      6.43270000      2.72719000       1
H               0.40668700     -7.07785000      5.26934000       1
P               5.25403000      1.18895000      7.09747000      15
H               1.89231000     -7.45153000      4.51036000       1
H               6.41220000      5.98212000     -1.85178000       1
I               3.15004000      3.61165000      7.58883000      53
H               6.51294000      4.78914000      3.98346000       1
I              -1.30183000     -5.81492000      6.78807000      53
H               5.29312000      6.15014000     -3.97273000       1
C              -0.00061720      0.37630100     -9.04828000       6
P              -8.39213000     -3.33442000      0.80057900      15
H              -3.64146000     -3.29978000     -7.62525000       1
H               5.28720000      7.21494000     -1.82187000       1
C               0.23781600     -8.41486000      3.65049000       6
P               0.74494600      5.71955000      7.14856000      15
H               8.28898000      0.21773100      4.00265000       1
N               0.96796800     -7.82553000      4.81082000       7
I               6.86182000     -1.50777000     -6.00598000      53
I              -7.71067000     -3.26243000      3.95843000      53
P               5.00240000     -7.78126000      0.83001800      15
H              -8.86477000      2.36279000     -1.47628000       1
I              -3.64919000     -8.21259000     -2.37846000      53
C              -8.87962000      1.60775000     -2.26480000       6
H               1.42462000     -8.61619000     -3.22685000       1
N              -7.89607000      1.19350000      4.81082000       7
H              -8.77776000      1.38721000      2.90638000       1
C              -8.62622000      0.60417200      3.65049000       6
C               8.99468000      1.60775000     -2.26480000       6
H               9.00952000      2.36279000     -1.47628000       1
H               8.64514000      2.04308000     -3.20327000       1
H               0.99152200      8.81684000      3.23443000       1
I               0.91493200     -3.49030000     -8.74034000      53
H              -7.69651000      0.47048500      5.52830000       1
H               0.60686800     -0.43005800     -9.46434000       1
I               7.55800000     -5.88074000      1.12685000      53
H               9.09654000      1.38721000      2.90638000       1
I               4.44961000     -7.59517000      3.96210000      53
H               5.68035000      5.94712000      5.07352000       1
H               1.80927000      0.63070800      9.47192000       1
I              -4.48754000     -7.59517000      3.96210000      53
H              -0.72127900     -8.80130000      4.00265000       1
H              -3.40559000     -2.64102000      8.72604000       1
I               8.80290000     -3.44408000     -2.35436000      53
H              -9.50900000      0.76383000     -1.97480000       1
H               0.01953460      2.27095000      9.49550000       1
I               4.21117000      1.19599000     -8.73667000      53
I              -6.28209000     -0.77554600      7.46380000      53
I              -6.17177000     -5.63526000     -5.10994000      53
H               0.84530100     -9.22122000      3.23443000       1
I               3.07693000     -5.40738000      7.58883000      53
I              -2.00222000      7.51127000     -6.00598000      53
H               5.29569000     -3.29978000     -7.62525000       1
H              -4.26085000      4.08980000     -7.89314000       1
H              -0.15215100      1.15934000     -9.79238000       1
I               2.41663000      8.01561000     -5.23497000      53
I               7.17337000     -1.27990000      6.69279000      53
I               7.39689000      2.97624000     -5.91070000      53
C               9.24808000      0.60417200      3.65049000       6
H              -9.22916000      2.04308000     -3.20327000       1
H               1.87538000      9.67498000     -1.59151000       1
I              -9.07139000     -3.44408000     -2.35436000      53
H              -0.49873900      9.78286000     -1.97480000       1
I               2.36418000     -9.70518000      0.46430500      53
