200
cutoff_factor=1.20000000 nneightol=1.20000000 Lattice="28.74775000       0.00000000       0.00000000       0.00000000      28.60311000       0.00000000       0.00000000       0.00000000      28.60275000" Properties=species:S:1:pos:R:3:Z:I:1
H              -0.37501300     -0.48937900     -0.78772100       1
C              -0.71092200     -0.99449900     -1.69582000       6
I               1.25288000      2.03861000     -0.33219600      53
H              -0.52375100     -0.37111500     -2.57299000       1
H              -1.77185000     -1.24400000     -1.62186000       1
N               0.06236220     -2.26180000     -1.84261000       7
H               1.07882000     -2.06420000     -1.94054000       1
H              -0.07646740     -2.88035000     -1.01813000       1
I              -2.47667000     -1.13013000      1.64909000      53
H               0.19975400      2.58298000      2.01521000       1
I               1.98610000     -1.61011000      2.26362000      53
H              -0.92319700      0.81084600      3.24500000       1
H              -0.25772600     -2.79306000     -2.67602000       1
P               3.87148000      0.42401800      0.69646400      15
N               0.17340800      2.60015000      3.05704000       7
H               1.07068000      2.18744000      3.36954000       1
C              -0.99628000      1.84338000      3.59116000       6
I              -3.20289000      2.56488000     -0.90862000      53
I               3.64529000     -1.37236000     -2.01187000      53
H              -1.91124000      2.30989000      3.21975000       1
P              -0.57628800      4.08054000     -1.96013000      15
P              -0.63293100     -3.14570000      3.29369000      15
H               0.17675400      3.58695000      3.39141000       1
I              -0.32439300     -4.99160000      0.62964900      53
I              -0.67369200      2.19665000     -4.54879000      53
P              -5.04706000      0.42401800      0.69646400      15
H              -0.96112400      1.88073000      4.68164000       1
H               3.91569000      0.71275400     -3.49382000       1
H               2.66800000      2.76342000     -3.83973000       1
I               3.83092000      2.42680000      3.23041000      53
H              -3.99331000      2.02382000     -3.35228000       1
H               4.15381000     -3.96187000     -0.10391100       1
I              -5.27325000     -1.37236000     -2.01187000      53
H               2.50982000     -5.10138000      1.26926000       1
H               2.63213000     -1.76120000      5.15373000       1
I              -0.39894600      6.03670000      0.62964900      53
I              -0.72562500     -1.30496000      5.91532000      53
N               4.33783000      1.49636000     -4.03144000       7
H               3.55723000      4.72243000      1.66585000       1
H              -5.00285000      0.71275400     -3.49382000       1
I               1.24611000     -1.88529000     -5.72759000      53
C               3.28727000      2.35788000     -4.64219000       6
H              -4.76473000     -3.96187000     -0.10391100       1
H               2.68407000      1.74041000     -5.31038000       1
I              -2.33369000     -4.67675000     -3.36072000      53
H              -3.97083000      1.05949000     -4.75208000       1
N              -4.58071000      1.49636000     -4.03144000       7
H               4.92523000      2.02382000     -3.35228000       1
I               5.71565000      2.56488000     -0.90862000      53
H              -3.57536000     -5.23319000      0.33264700       1
H               3.72269000     -0.33870600      5.26731000       1
I              -5.08762000      2.42680000      3.23041000      53
H               3.88290000     -4.74174000      2.18427000       1
N               3.51814000     -5.31116000      1.39167000       7
H               2.43526000      5.92692000      1.26926000       1
C               4.28899000     -5.01662000      0.14578700       6
I               2.07439000     -5.44065000     -3.13082000      53
H               3.83194000      5.37577000     -0.65558600       1
I               1.99983000      5.58765000     -3.13082000      53
I               6.44187000     -1.13013000      1.64909000      53
C               3.23533000     -1.14373000      5.82192000       6
N               3.44359000      5.71714000      1.39167000       7
C              -4.62955000     -5.01662000      0.14578700       6
H              -3.64991000      5.79511000      0.33264700       1
H               3.90650000     -5.65253000     -0.65558600       1
P               3.97763000     -3.34328000     -4.55534000      15
H               4.94771000      1.05949000     -4.75208000       1
I              -3.25993000     -1.10885000     -6.13761000      53
I              -3.31186000     -4.61046000      4.32650000      53
H               3.77463000      3.16290000     -5.19680000       1
H               2.61607000     -0.73819400      6.62438000       1
P              -0.58099800      0.35591400     -7.17042000      15
P              -0.50173500     -6.94776000     -1.96013000      15
H              -5.03564000     -4.74174000      2.18427000       1
I               1.19418000     -5.38690000      4.73652000      53
H              -5.36131000      4.72243000      1.66585000       1
C               4.21444000      6.01168000      0.14578700       6
H              -4.02276000     -2.44212000      5.71203000       1
H              -5.19584000     -0.33870600      5.26731000       1
H              -5.08660000      5.37577000     -0.65558600       1
H               7.14669000     -1.24400000     -1.62186000       1
I               1.11962000      5.64140000      4.73652000      53
H               3.63179000     -6.30587000      1.66585000       1
I              -6.93244000     -1.61011000      2.26362000      53
H               5.34318000     -5.23319000      0.33264700       1
P              -4.94091000     -3.34328000     -4.55534000      15
I              -2.40824000      6.35155000     -3.36072000      53
H              -5.01204000     -5.65253000     -0.65558600       1
C              -4.70410000      6.01168000      0.14578700       6
H               3.80834000      6.28656000      2.18427000       1
C              -5.63127000      2.35788000     -4.64219000       6
N              -5.40040000     -5.31116000      1.39167000       7
H              -6.25054000      2.76342000     -3.83973000       1
H               5.26863000      5.79511000      0.33264700       1
I               1.94790000      2.08604000      7.33329000      53
H               4.89578000     -2.44212000      5.71203000       1
I              -7.66566000      2.03861000     -0.33219600      53
H              -0.90919100      5.38234000     -5.78247000       1
H              -5.14391000      3.16290000     -5.19680000       1
N               4.28590000     -2.00525000      6.43268000       7
N              -5.47495000      5.71714000      1.39167000       7
I              -2.46017000      2.84994000      7.10340000      53
H               7.00730000      2.30989000      3.21975000       1
H               0.30324000     -3.93974000     -7.07270000       1
H              -0.83463800     -5.64596000     -5.78247000       1
H               4.07925000      7.06643000     -0.10391100       1
N              -4.63264000     -2.00525000      6.43268000       7
H               0.25130700     -7.44135000      3.39141000       1
P               3.85114000      4.18341000      5.90877000      15
H              -0.15102000      8.14795000     -1.01813000       1
C              -5.68321000     -1.14373000      5.82192000       6
H              -6.40872000     -5.10138000      1.26926000       1
H              -4.04524000     -1.47779000      7.11183000       1
H              -6.28640000     -1.76120000      5.15373000       1
H              -7.83972000     -2.06420000     -1.94054000       1
H              -6.23447000      1.74041000     -5.31038000       1
H              -5.11019000      6.28656000      2.18427000       1
H              -5.28675000     -6.30587000      1.66585000       1
I               5.65861000     -1.10885000     -6.13761000      53
C               8.20762000     -0.99449900     -1.69582000       6
H               3.86375000     -2.78886000      6.97030000       1
I              -3.38642000      6.41784000      4.32650000      53
I               5.60667000     -4.61046000      4.32650000      53
H              -0.87126400      4.31246000     -7.21911000       1
P              -0.62822100      0.57892700      8.50399000      15
H              -4.83929000      7.06643000     -0.10391100       1
P              -0.70748400      7.88260000      3.29369000      15
H               8.54353000     -0.48937900     -0.78772100       1
I               2.03803000      1.89150000     -8.20049000      53
H              -0.33227900      8.23524000     -2.67602000       1
H               7.99534000      0.81084600      3.24500000       1
H               0.27430700     -8.44532000      2.01521000       1
H               4.87330000     -1.47779000      7.11183000       1
I               6.58485000     -4.67675000     -3.36072000      53
C              -0.94434700      5.34499000     -6.87295000       6
H               8.39479000     -0.37111500     -2.57299000       1
H              -0.57568400     -3.87273000      7.89113000       1
H              -7.84786000      2.18744000      3.36954000       1
P              -5.06740000      4.18341000      5.90877000      15
H              -6.48327000      5.92692000      1.26926000       1
C               7.92226000      1.84338000      3.59116000       6
N               0.29989400     -4.92654000     -7.40707000       7
N              -0.01219080      8.76650000     -1.84261000       7
H               1.19717000     -5.33925000     -7.09457000       1
C              -0.86979400     -5.68331000     -6.87295000       6
N               0.24796100     -8.42815000      3.05704000       7
H              -5.05479000     -2.78886000      6.97030000       1
I              -3.12833000     -8.46342000     -0.90862000      53
I               1.32743000     -8.98969000     -0.33219600      53
H              -1.78475000     -5.21680000     -7.24437000       1
H              -0.38421200      4.73363000      7.78810000       1
H               1.12261000      5.68905000     -7.09457000       1
H              -6.30247000     -0.73819400      6.62438000       1
H               1.00427000      8.96410000     -1.94054000       1
H               3.93483000     -1.24013000     -8.27984000       1
I              -6.84415000     -5.44065000     -3.13082000      53
H              -8.71878000      2.58298000      2.01521000       1
N              -8.85618000     -2.26180000     -1.84261000       7
H              -9.29355000     -0.48937900     -0.78772100       1
H               8.84207000     -2.88035000     -1.01813000       1
H               7.95741000      1.88073000      4.68164000       1
I              -6.91870000      5.58765000     -3.13082000      53
N               8.98090000     -2.26180000     -1.84261000       7
I              -2.42473000      2.37148000     -8.81502000      53
P               8.28561000     -3.14570000      3.29369000      15
H              -1.85931000      5.81150000     -7.24437000       1
H              -1.83669000     -8.71841000      3.21975000       1
H               8.66081000     -2.79306000     -2.67602000       1
P               8.34225000      4.08054000     -1.96013000      15
H              -8.99501000     -2.88035000     -1.01813000       1
I               5.53212000      6.41784000      4.32650000      53
H               2.74255000     -8.26488000     -3.83973000       1
H               1.14523000     -8.84086000      3.36954000       1
N               0.22534100      6.10176000     -7.40707000       7
N              -8.74513000      2.60015000      3.05704000       7
I               8.24485000      2.19665000     -4.54879000      53
H               2.56175000     -1.59977000     -9.19485000       1
H               9.11829000      2.58298000      2.01521000       1
I               3.95740000     -5.09989000     -7.23370000      53
I               6.51030000      6.35155000     -3.36072000      53
H              -4.98371000     -1.24013000     -8.27984000       1
P               3.90307000      7.68502000     -4.55534000      15
I              -7.67243000     -1.88529000     -5.72759000      53
H              -9.44229000     -0.37111500     -2.57299000       1
H               0.32624000     -4.94371000     -8.44890000       1
C              -9.62946000     -0.99449900     -1.69582000       6
P               3.92569000     -6.84490000      5.90877000      15
I               1.91154000      9.41819000      2.26362000      53
C              -0.76285500     -4.49611000      8.76829000       6
H              -0.79671100     -6.71584000     -7.21911000       1
C              -0.92172700     -9.18492000      3.59116000       6
N               3.57008000     -1.80955000     -9.07244000       7
N               9.09195000      2.60015000      3.05704000       7
H               3.68372000     -2.80426000     -8.79826000       1
I              -0.27246000     -1.48999000     -9.83446000      53
I              -0.59913900     -8.83165000     -4.54879000      53
H              -9.17627000     -2.79306000     -2.67602000       1
I               8.59415000     -4.99160000      0.62964900      53
I               3.90547000     -8.60150000      3.23041000      53
I               6.45836000      2.84994000      7.10340000      53
