200
cutoff_factor=1.20000000 nneightol=1.20000000 Lattice="28.74400000       0.00000000       0.00000000       0.00000000      28.77515000       0.00000000       0.00000000       0.00000000      29.54296000" Properties=species:S:1:pos:R:3:Z:I:1
P              -1.67291000     -0.01658390     -0.00998220      15
I               1.05962000      1.69323000      0.04759120      53
I               0.08449700     -2.74371000     -0.05061200      53
H               2.38986000     -0.49725900      1.82075000       1
H               1.16231000     -0.46608300      2.96387000       1
H               2.67395000     -0.38886600     -1.96459000       1
I              -1.42559000      0.11173300      3.22406000      53
I              -1.47772000      0.00614962     -3.20448000      53
N               2.17555000     -0.65731700      2.82473000       7
H               1.09032000      0.45298900     -3.58030000       1
H               2.36076000     -1.65727000      3.03908000       1
C               2.92552000     -0.39217300     -3.02750000       6
N               2.10485000      0.64850400     -3.70567000       7
H              -1.34387000     -3.57269000     -2.03616000       1
I              -3.36457000      2.72731000      0.02410280      53
H               2.30119000      1.59418000     -3.32097000       1
H              -1.31283000      2.81989000      3.13898000       1
H              -1.42871000      3.86213000      1.83697000       1
H               2.77983000      1.27884000      3.41105000       1
H               2.69089000     -1.36160000     -3.47296000       1
I              -4.31542000     -1.82187000      0.02152370      53
C               3.00274000      0.24434700      3.68166000       6
H              -0.72160300      3.39570000     -3.30667000       1
H              -1.75613000     -3.15012000      3.29245000       1
N              -1.16734000      3.80493000      2.84072000       7
I               4.56901000     -1.82187000      0.02152370      53
H              -0.15676200      4.03442000      2.93221000       1
H               3.98078000     -0.14964000     -3.17234000       1
P               2.74158000      4.38264000      0.00574440      15
N              -2.04112000     -4.07873000     -2.62470000       7
H              -2.72109000     -3.40183000     -3.00400000       1
H              -2.59389000      4.17148000     -1.98577000       1
H               2.32068000      0.67320900     -4.72033000       1
P               2.80493000     -4.52981000      0.00574440      15
H               4.05690000      0.02040510      3.50293000       1
H               2.74522000      0.05949480      4.72700000       1
H              -1.36536000     -5.05032000      1.83697000       1
H              -0.09340960     -4.87803000      2.93221000       1
H              -2.53054000     -4.74097000     -1.98577000       1
C              -1.43530000      4.10199000     -3.73677000       6
H              -4.90366000     -0.14964000     -3.17234000       1
C              -1.94270000     -4.16735000      3.64390000       6
H              -1.40722000      5.33976000     -2.03616000       1
N              -2.10447000      4.83372000     -2.62470000       7
N              -1.10398000     -5.10752000      2.84072000       7
I               2.67632000      4.26197000     -3.18447000      53
H              -4.82753000      0.02040510      3.50293000       1
I               2.51987000     -4.37499000      3.21398000      53
H              -2.19867000      3.57191000     -4.31107000       1
H              -0.85650300     -4.08337000     -4.36860000       1
I               2.45651000      4.53746000      3.21398000      53
I               5.51986000      2.72731000      0.02410280      53
I               0.02114420      6.16873000     -0.05061200      53
C              -1.37195000     -4.81046000     -3.73677000       6
I               2.73967000     -4.65048000     -3.18447000      53
C              -2.00606000      4.74510000      3.64390000       6
H              -2.99259000     -4.43432000      3.50336000       1
H              -3.05594000      4.47813000      3.50336000       1
H              -0.65825000     -5.51675000     -3.30667000       1
H              -6.21049000     -0.38886600     -1.96459000       1
H              -1.66241000     -4.26638000      4.69475000       1
H              -0.91985500      4.82908000     -4.36860000       1
P              -1.70633000     -0.11539100     -6.42843000      15
P              -1.65645000      0.05932730      6.46175000      15
C              -5.95891000     -0.39217300     -3.02750000       6
H              -6.49458000     -0.49725900      1.82075000       1
H              -1.72576000      4.64607000      4.69475000       1
H              -2.78444000      5.51062000     -3.00400000       1
I               0.92589300     -1.97794000     -6.52539000      53
H              -1.81949000      5.76233000      3.29245000       1
C              -5.88169000      0.24434700      3.68166000       6
H              -1.24948000     -6.09256000      3.13898000       1
I               0.91049900      1.86961000      6.65529000      53
I              -3.30122000     -6.18514000      0.02410280      53
I               0.24931200      2.42756000     -6.58374000      53
I               0.15023600     -2.59504000      6.53871000      53
H              -6.10460000      1.27884000      3.41105000       1
H              -2.13532000     -5.34054000     -4.31107000       1
P               7.21153000     -0.01658390     -0.00998220      15
H              -6.19355000     -1.36160000     -3.47296000       1
I               1.12298000     -7.21922000      0.04759120      53
N              -6.70888000     -0.65731700      2.82473000       7
H              -6.52368000     -1.65727000      3.03908000       1
H              -6.58324000      1.59418000     -3.32097000       1
P              -6.14286000      4.38264000      0.00574440      15
P              -6.07950000     -4.52981000      0.00574440      15
I              -3.47194000     -2.70914000     -6.22518000      53
H               6.16335000     -3.40183000     -3.00400000       1
I              -3.57610000      2.60082000      6.35508000      53
H              -6.13921000      0.05949480      4.72700000       1
N              -6.77959000      0.64850400     -3.70567000       7
I              -4.18933000     -1.90613000      6.29673000      53
H               6.29055000      4.17148000     -1.98577000       1
I              -4.29556000      1.73865000     -6.34176000      53
I              -7.82481000      1.69323000      0.04759120      53
I               4.58888000      1.73865000     -6.34176000      53
I               7.40671000      0.00614962     -3.20448000      53
I               4.69511000     -1.90613000      6.29673000      53
H              -6.56376000      0.67320900     -4.72033000       1
I               7.45884000      0.11173300      3.22406000      53
H               5.82850000      4.47813000      3.50336000       1
H               5.89185000     -4.43432000      3.50336000       1
H               6.35390000     -4.74097000     -1.98577000       1
I              -6.20812000      4.26197000     -3.18447000      53
H               2.29740000      7.25518000      3.03908000       1
P               2.78220000      4.39302000     -6.41872000      15
H              -7.72212000     -0.46608300      2.96387000       1
P               2.67611000      4.46337000      6.45204000      15
P               2.73946000     -4.44908000      6.45204000      15
I               5.58322000     -6.18514000      0.02410280      53
I              -4.37878000      7.09058000      0.02152370      53
I              -6.14477000     -4.65048000     -3.18447000      53
P               2.84555000     -4.51943000     -6.41872000      15
I              -6.36457000     -4.37499000      3.21398000      53
H               2.36454000     -7.31827000     -3.32097000       1
N               6.84332000     -4.07873000     -2.62470000       7
I               4.50566000      7.09058000      0.02152370      53
H               7.12830000     -3.15012000      3.29245000       1
I              -6.42792000      4.53746000      3.21398000      53
H               7.54057000     -3.57269000     -2.03616000       1
H              -7.79411000      0.45298900     -3.58030000       1
H               7.45573000      3.86213000      1.83697000       1
H               2.77624000      0.06731750     -8.18572000       1
H               7.57160000      2.81989000      3.13898000       1
I               5.30833000      2.60082000      6.35508000      53
I               5.41249000     -2.70914000     -6.22518000      53
H               2.62754000      7.55085000     -3.47296000       1
H               6.68577000      3.57191000     -4.31107000       1
N               6.77996000      4.83372000     -2.62470000       7
H               6.10000000      5.51062000     -3.00400000       1
H               2.84318000     -7.63361000      3.41105000       1
C               6.94173000     -4.16735000      3.64390000       6
H               2.24712000     -0.76178100      8.56940000       1
H               2.32651000      8.41519000      1.82075000       1
N               2.11220000      8.25513000      2.82473000       7
H               1.09896000      8.44637000      2.96387000       1
N               7.71710000      3.80493000      2.84072000       7
P              -1.73626000      8.89587000     -0.00998220      15
P              -1.60956000     -8.92903000     -0.00998220      15
I               0.08688290      6.31740000      6.53871000      53
C               6.87838000      4.74510000      3.64390000       6
H               2.61059000      8.52358000     -1.96459000       1
H              -2.11797000     -3.66048000      8.16014000       1
I              -8.79994000     -2.74371000     -0.05061200      53
H               3.52594000      0.49538300      8.51187000       1
H               7.51908000     -5.05032000      1.83697000       1
I               0.31266500     -6.48489000     -6.58374000      53
H               1.15368000     -8.45946000     -3.58030000       1
C               7.44914000      4.10199000     -3.73677000       6
N               2.16820000     -8.26395000     -3.70567000       7
I               8.96893000     -2.74371000     -0.05061200      53
H               7.47721000      5.33976000     -2.03616000       1
H              -1.70057000      4.39319000     -8.15347000       1
H               8.16283000      3.39570000     -3.30667000       1
H              -1.63722000     -4.51926000     -8.15347000       1
I              -1.36224000     -8.80072000      3.22406000      53
I              -3.53530000      6.20331000     -6.22518000      53
C               2.86217000      8.52028000     -3.02750000       6
H               1.44606000     -0.10062600     -9.37711000       1
I               0.86254000      6.93451000     -6.52539000      53
C               2.49594000      0.16634600     -9.23657000       6
I              -1.41437000     -8.90630000     -3.20448000      53
I              -1.54108000      8.91860000     -3.20448000      53
H               7.22203000     -4.26638000      4.69475000       1
I              -3.51275000     -6.31163000      6.35508000      53
H               6.74912000     -5.34054000     -4.31107000       1
C               3.01049000     -0.23170100      9.14370000       6
P               7.17811000     -0.11539100     -6.42843000      15
C               7.51249000     -4.81046000     -3.73677000       6
H               7.06495000      5.76233000      3.29245000       1
P               7.22799000      0.05932730      6.46175000      15
I              -1.48894000      9.02418000      3.22406000      53
N               7.78045000     -5.10752000      2.84072000       7
I               0.97385200     -7.04284000      6.65529000      53
H               7.15868000      4.64607000      4.69475000       1
H               2.38403000     -8.23924000     -4.72033000       1
I              -1.76233000     -0.07172600      9.69600000      53
I              -1.92593000     -0.04129730     -9.66649000      53
P              -6.10224000      4.39302000     -6.41872000      15
H               2.73730000     -9.30132000     -1.96459000       1
H               2.45321000     -9.40971000      1.82075000       1
C               3.06610000     -8.66810000      3.68166000       6
P              -6.03889000     -4.51943000     -6.41872000      15
H               1.22566000     -9.37853000      2.96387000       1
H              -2.18132000      5.25197000      8.16014000       1
P              -6.14497000     -4.44908000      6.45204000      15
P              -6.20833000      4.46337000      6.45204000      15
H               8.02793000     -4.08337000     -4.36860000       1
H               2.68251000      1.18357000     -9.58802000       1
H               8.72767000      4.03442000      2.93221000       1
H              -5.35850000      0.49538300      8.51187000       1
H               1.02697000      9.36544000     -3.58030000       1
H               1.66135000      1.17692000      9.87647000       1
I               9.94406000      1.69323000      0.04759120      53
H              -1.81111000      3.21716000      9.40750000       1
H               3.91743000      8.76281000     -3.17234000       1
H              -1.60261000     -3.29992000     -9.46942000       1
N              -2.33379000     -3.68519000      9.17480000       7
H              -2.13745000     -2.73951000      9.55950000       1
H              -6.10820000      0.06731750     -8.18572000       1
