200
cutoff_factor=1.20000000 nneightol=1.20000000 Lattice="28.14681000       0.00000000       0.00000000       0.00000000      28.76557000       0.00000000       0.00000000       0.00000000      28.50823000" Properties=species:S:1:pos:R:3:Z:I:1
I              -0.24292300     -0.97899200     -1.25652000      53
P               0.02780970      0.86927200      1.37643000      15
H               0.22405400      1.98566000     -2.45341000       1
H               3.13728000     -0.78899800     -1.00925000       1
H              -2.79367000     -1.60140000     -1.31284000       1
I               2.60017000     -0.76129600      2.34343000      53
I               1.76717000      3.11861000     -0.15031300      53
I              -2.62031000      2.49899000      0.47980700      53
H               0.12840900     -3.70406000      0.35813300       1
I              -1.74045000     -1.13626000      3.13758000      53
H               0.00251685     -3.48252000      2.13532000       1
C              -0.34330500      2.40224000     -3.28770000       6
H              -1.22365000      1.78916000     -3.49351000       1
H              -4.25521000      0.02570450     -0.23388700       1
C               0.36080600     -4.13357000      1.33512000       6
C               4.19434000     -0.53215700     -1.10884000       6
N              -3.80924000     -1.79730000     -1.19621000       7
H               4.53452000      0.02570450     -0.23388700       1
H              -3.94063000     -2.38203000     -0.34717400       1
H              -0.63394800      3.43122000     -3.07633000       1
H               1.43573000     -4.30110000      1.43313000       1
C              -4.59539000     -0.53215700     -1.10884000       6
H               4.36416000      0.04366400     -2.02109000       1
I               0.31876600      2.79066000      3.92816000      53
P               0.11439700     -2.93216000     -3.85964000      15
H              -4.42557000      0.04366400     -2.02109000       1
H               0.85022200      1.42793000     -4.71020000       1
H              -0.04018230      4.97740000      0.71068700       1
N               0.52795400      2.39845000     -4.49661000       7
H              -4.13953000     -2.37236000     -1.99870000       1
H              -0.05518060     -0.89030200      5.10815000       1
H               4.84910000     -2.38203000     -0.34717400       1
N               4.98049000     -1.79730000     -1.19621000       7
H               1.37624000      2.97306000     -4.36492000       1
H               4.65020000     -2.37236000     -1.99870000       1
H              -2.93215000      2.11959000      4.33498000       1
N              -0.33503100     -5.45014000      1.44965000       7
H              -1.36194000     -5.33956000      1.34554000       1
H              -0.18096700      5.17344000      2.36010000       1
I               2.74449000     -4.23904000     -2.68571000      53
H              -5.65245000     -0.78899800     -1.00925000       1
I               1.85192000     -0.71726200     -5.46494000      53
N              -0.38095300      5.62792000      1.44965000       7
H               3.16688000      3.23283000      3.70143000       1
I              -2.56241000     -1.54785000     -5.06265000      53
I              -1.71111000     -5.12624000     -2.42864000      53
H              -4.27020000      3.21978000      2.67520000       1
H              -0.00343656      2.71342000     -5.33557000       1
H              -4.38699000      1.15951000      3.91197000       1
H               4.40273000      1.15951000      3.91197000       1
H              -1.40786000      5.73850000      1.34554000       1
N               0.47621000     -1.20527000      5.94711000       7
H               0.00573964     -6.10067000      0.71068700       1
H               4.51953000      3.21978000      2.67520000       1
H               0.79847800     -2.17579000      5.73351000       1
I              -4.06139000     -4.54529000      1.28084000      53
H               1.32450000     -0.63065800      6.07879000       1
I               4.27518000      2.61265000     -3.81932000      53
C              -4.02199000      2.07047000      4.39059000       6
H               5.99606000     -1.60140000     -1.31284000       1
H              -0.13504500     -5.90463000      2.36010000       1
P               4.38922000      4.53665000     -1.27824000      15
P              -4.40050000      4.53665000     -1.27824000      15
N               4.20433000      3.24525000      3.66420000       7
I              -4.51455000      2.61265000     -3.81932000      53
P              -4.31739000     -2.81285000      3.98272000      15
P               4.47234000     -2.81285000      3.98272000      15
I              -6.18956000     -0.76129600      2.34343000      53
I              -1.75704000      5.95183000     -2.42864000      53
I               6.16942000      2.49899000      0.47980700      53
I               4.72834000     -4.54529000      1.28084000      53
N              -4.58540000      3.24525000      3.66420000       7
C               4.76773000      2.07047000      4.39059000       6
I               1.80018000     -4.32098000      4.97877000      53
H               1.38981000      6.77697000      1.43313000       1
C               0.31488400      6.94449000      1.33512000       6
H              -4.23398000      4.12088000      4.10563000       1
C              -0.39504900     -1.20148000      7.15601000       6
H              -4.35293000      2.11523000      5.43031000       1
H              -1.27540000     -1.81456000      6.95021000       1
H               4.43680000      2.11523000      5.43031000       1
H               0.08248660      7.37400000      0.35813300       1
H               4.55575000      4.12088000      4.10563000       1
H              -0.68569200     -0.17249800      7.36738000       1
H              -5.62285000      3.23283000      3.70143000       1
H               5.85757000      2.11959000      4.33498000       1
I              -7.02255000      3.11861000     -0.15031300      53
P              -4.26565000      0.79087200     -6.46100000      15
I               7.04928000     -1.13626000      3.13758000      53
I              -4.10731000      6.53278000      1.28084000      53
I               2.69856000      6.83903000     -2.68571000      53
I              -6.04524000     -4.23904000     -2.68571000      53
H              -0.04340510      7.59554000      2.13532000       1
I              -1.68871000      2.46746000     -7.30614000      53
I              -2.61416000     -5.15157000      5.38106000      53
I               4.22343000     -0.99107000      6.62439000      53
P               4.52408000      0.79087200     -6.46100000      15
P              -4.35458000     -6.54142000     -1.27824000      15
P               0.01673050      4.54218000      6.58407000      15
P               4.43515000     -6.54142000     -1.27824000      15
I               0.41643200     -4.68368000     -6.51555000      53
I              -4.56630000     -0.99107000      6.62439000      53
I               4.68241000      6.53278000      1.28084000      53
H               0.17231000     -1.61806000      7.99031000       1
I               1.81310000     -7.95946000     -0.15031300      53
I               6.22731000     -1.54785000     -5.06265000      53
H              -0.58802600     -7.64684000     -3.07633000       1
H              -4.13631000     -3.35347000     -6.33808000       1
H               0.05426090      0.12119700     -8.30839000       1
H              -0.08330140     -2.30091000     -8.08361000       1
I              -2.66008000      5.92650000      5.38106000      53
H              -4.25527000     -5.35911000     -5.01340000       1
H               7.56608000      1.78916000     -3.49351000       1
I              -1.80878000      2.34810000      8.01507000      53
H               4.65341000     -3.35347000     -6.33808000       1
I               1.75425000      6.75708000      4.97877000      53
H              -2.83449000     -5.35476000     -6.10873000       1
H               3.26455000     -4.24151000     -6.74229000       1
H               4.53446000     -5.35911000     -5.01340000       1
H              -7.35400000     -4.30110000      1.43313000       1
I               8.54681000     -0.97899200     -1.25652000      53
H              -4.30119000      5.71895000     -5.01340000       1
I               2.64682000      3.23531000      7.75801000      53
H               4.48854000      5.71895000     -5.01340000       1
H              -2.88041000      5.72331000     -6.10873000       1
I              -6.93781000     -0.71726200     -5.46494000      53
P              -8.76192000      0.86927200      1.37643000      15
P               8.81754000      0.86927200      1.37643000      15
I              -2.57439000     -8.57908000      0.47980700      53
I               2.65191000      2.84243000     -8.10028000      53
C              -3.92433000     -5.40388000     -6.05313000       6
P               0.06847450      8.14590000     -3.85964000      15
I               7.07862000     -5.12624000     -2.42864000      53
N               4.30200000     -4.22909000     -6.77952000       7
H              -4.18806000     -6.95719000      4.10563000       1
H              -7.41349000      2.97306000     -4.36492000       1
H              -8.56567000      1.98566000     -2.45341000       1
C               0.41255000     -0.52985200     -9.10860000       6
I               0.37051000      6.39438000     -6.51555000      53
H               1.48747000     -0.69738100     -9.01059000       1
N              -4.48773000     -4.22909000     -6.77952000       7
I              -9.03265000     -0.97899200     -1.25652000      53
H              -4.33525000      4.76323000     -6.53175000       1
I               0.36468800     -8.28741000      3.92816000      53
N              -0.28328700     -1.84642000     -8.99406000       7
C              -3.97025000      5.67419000     -6.05313000       6
H               4.45448000      4.76323000     -6.53175000       1
H               7.42779000     -5.33956000      1.34554000       1
H               3.21280000     -7.84523000      3.70143000       1
P               0.06265250     -6.53589000      6.58407000      15
C              -0.29738300     -8.67582000     -3.28770000       6
H               4.60167000     -6.95719000      4.10563000       1
H              -4.22428000     -7.85828000      2.67520000       1
H               1.42216000     -8.10500000     -4.36492000       1
H              -7.93951000      1.42793000     -4.71020000       1
H              -1.31020000     -1.73584000     -9.09817000       1
H               8.15578000      3.43122000     -3.07633000       1
C               8.44642000      2.40224000     -3.28770000       6
H               0.26997600     -9.09241000     -2.45341000       1
H              -8.66132000     -3.70406000      0.35813300       1
H               7.38186000      5.73850000      1.34554000       1
C               4.86540000     -5.40388000     -6.05313000       6
H               4.56545000     -7.85828000      2.67520000       1
C              -8.42892000     -4.13357000      1.33512000       6
I               7.03269000      5.95183000     -2.42864000      53
I              -6.09116000      6.83903000     -2.68571000      53
H               9.01378000      1.98566000     -2.45341000       1
H              -3.98655000      8.69604000     -0.34717400       1
C               4.81948000      5.67419000     -6.05313000       6
I              -6.98955000     -4.32098000      4.97877000      53
N               4.25025000     -7.83281000      3.66420000       7
H              -7.46523000     -0.63065800      6.07879000       1
H               8.91814000     -3.70406000      0.35813300       1
I               6.17557000     -5.15157000      5.38106000      53
H              -8.78721000     -3.48252000      2.13532000       1
H              -5.52518000     -4.24151000     -6.74229000       1
H               8.79225000     -3.48252000      2.13532000       1
N              -8.26177000      2.39845000     -4.49661000       7
I              -8.47096000      2.79066000      3.92816000      53
N              -4.53948000     -7.83281000      3.66420000       7
H              -4.17253000     -4.25456000     -7.76851000       1
N               0.57387600     -8.67962000     -4.49661000       7
H              -4.18545000      8.70571000     -1.99870000       1
H               0.04248540     -8.36465000     -5.33557000       1
P              -8.67533000     -2.93216000     -3.85964000      15
H               4.80318000      8.69604000     -0.34717400       1
H              -2.83959000      9.47667000     -1.31284000       1
H               4.61720000     -4.25456000     -7.76851000       1
H              -1.17773000     -9.28890000     -3.49351000       1
C              -9.13303000      2.40224000     -3.28770000       6
I              -4.00965000     -0.94157100     -9.16287000      53
H              -4.28933000     -6.31484000     -6.53175000       1
H               0.05748370     -2.49695000     -9.73303000       1
H               4.60428000      8.70571000     -1.99870000       1
H               5.95524000     -5.35476000     -6.10873000       1
H              -7.99125000     -2.17579000      5.73351000       1
I               6.12965000      5.92650000      5.38106000      53
H               0.18015300     -0.10034300    -10.08560000       1
H               8.74955000      4.97740000      0.71068700       1
H               4.31242000     -3.56006000      8.42263000       1
