200
cutoff_factor=1.20000000 nneightol=1.20000000 Lattice="28.20706000       0.00000000       0.00000000       0.00000000      29.05080000       0.00000000       0.00000000       0.00000000      28.36710000" Properties=species:S:1:pos:R:3:Z:I:1
I              -1.25506000     -1.13466000     -0.26542500      53
H               1.01340000      1.89968000      0.08308110       1
H               0.19189300      0.96032700      2.17289000       1
H              -0.97405900      1.94765000      1.48211000       1
N              -0.02817470      1.94263000      1.91302000       7
C               0.99680100      2.50979000      0.98834500       6
H              -0.13467500     -0.89715400     -2.90835000       1
H               1.96782000      2.48136000      1.48774000       1
P               0.58130900     -3.21335000      1.27532000      15
I               3.27216000     -1.65107000      0.41214400      53
H               0.71841200      3.53910000      0.75185600       1
H              -0.10048500      2.48187000      2.79988000       1
I               0.29261500     -1.16728000      3.84034000      53
C               0.15410900     -0.75845700     -3.95079000       6
I               2.54106000      1.95648000     -2.46589000      53
P              -3.82448000      0.45110200     -1.31792000      15
H               0.71857800      0.16818300     -4.07104000       1
I              -1.90967000      2.49123000     -2.82710000      53
H              -2.45344000     -1.23790000      3.43060000       1
I              -3.64327000      2.22522000      1.40962000      53
H               1.87628000     -1.95725000     -3.77045000       1
H              -3.59091000     -0.05455140      2.99760000       1
H              -0.72799500     -0.75300400     -4.59513000       1
H              -3.80072000     -1.62288000      2.48710000       1
N               1.02754000     -1.89929000     -4.35452000       7
N              -3.46318000     -1.04386000      3.28361000       7
H               0.49909300     -2.79661000     -4.32370000       1
P               5.06540000      0.45110200     -1.31792000      15
I               0.90160300     -5.07624000     -1.32015000      53
H              -2.38737000     -4.90132000     -1.11069000       1
I              -2.05505000     -4.66474000      2.39978000      53
P               0.62950600      4.05997000     -3.89245000      15
H               3.57689000     -1.16453000      4.29256000       1
I              -4.01906000     -1.59336000     -3.81527000      53
H               1.34994000     -1.78907000     -5.34224000       1
H               4.39599000     -3.72660000     -0.70923600       1
I              -5.61773000     -1.65107000      0.41214400      53
I               5.24661000      2.22522000      1.40962000      53
H              -4.49389000     -3.72660000     -0.70923600       1
H               5.08916000     -1.62288000      2.48710000       1
I              -1.26583000      2.87425000      5.15578000      53
H               5.29898000     -0.05455140      2.99760000       1
H              -4.19594000     -3.83788000     -2.34737000       1
I               0.80388700      5.96633000     -1.32015000      53
H               3.55356000     -4.83497000     -1.62593000       1
H              -3.69989000      5.06555000     -0.34306300       1
C              -4.25855000     -1.34858000      4.51042000       6
H              -3.39301000      4.95740000     -2.10849000       1
I               4.87082000     -1.59336000     -3.81527000      53
N              -4.40036000     -4.40062000     -1.49743000       7
N               5.42670000     -1.04386000      3.28361000       7
N               4.48952000     -4.40062000     -1.49743000       7
C              -3.33984000     -5.41900000     -1.24471000       6
H               4.69394000     -3.83788000     -2.34737000       1
I               2.37250000     -5.32272000      2.89867000      53
I               3.10328000      2.05379000      5.36931000      53
C               4.63133000     -1.34858000      4.51042000       6
P               0.53131800      0.56812900      6.58884000      15
H              -3.91732000     -0.69367900      5.31491000       1
C              -3.43756000      5.62357000     -1.24471000       6
H              -2.48509000      6.14124000     -1.11069000       1
H              -4.09959000     -2.39632000      4.77512000       1
I               2.27478000      5.71985000      2.89867000      53
H              -5.31299000     -1.16453000      4.29256000       1
H              -3.60217000     -5.97702000     -0.34306300       1
P              -3.94609000      4.24938000      3.92894000      15
H              -3.81914000      2.79817000     -5.16637000       1
I               0.39080300      2.32456000     -6.64094000      53
H              -4.00140000      1.09552000     -5.70617000       1
I              -6.34882000      1.95648000     -2.46589000      53
I              -2.15276000      6.37783000      2.39978000      53
I              -1.06992000     -4.67648000     -5.32551000      53
H               4.79029000     -2.39632000      4.77512000       1
H              -3.29529000     -6.08516000     -2.10849000       1
H               0.62039000     -3.32366000      6.41025000       1
H               5.19000000      5.06555000     -0.34306300       1
H               3.45584000      6.20760000     -1.62593000       1
H              -0.82618300     -4.24485000      5.88615000       1
H               4.97256000     -0.69367900      5.31491000       1
H              -5.33632000     -4.83497000     -1.62593000       1
H               6.43644000     -1.23790000      3.43060000       1
H               1.25176000     -5.28092000      5.13904000       1
H              -6.92206000      2.48136000      1.48774000       1
H               3.67508000      2.32732000     -6.18873000       1
H               0.81612800     -7.50346000      0.75185600       1
C              -4.16036000      2.14326000     -5.97087000       6
H               4.88848000      1.09552000     -5.70617000       1
P               4.94379000      4.24938000      3.92894000      15
H               5.49688000      4.95740000     -2.10849000       1
I               7.63483000     -1.13466000     -0.26542500      53
H               5.07075000      2.79817000     -5.16637000       1
H              -2.35525000      2.25394000     -7.05069000       1
H               0.30318900      4.75412000      6.15759000       1
C               0.05592060     -4.25030000      6.53050000       6
H               1.15404000      5.76165000      5.13904000       1
C               5.55004000     -5.41900000     -1.24471000       6
C               4.72952000      2.14326000     -5.97087000       6
C               5.45232000      5.62357000     -1.24471000       6
I               6.98022000      2.49123000     -2.82710000      53
P               0.48359400      7.82922000      1.27532000      15
I              -2.00785000     -1.00062000      7.65419000      53
H               5.28771000     -5.97702000     -0.34306300       1
P               0.72722200     -6.98259000     -3.89245000      15
N               4.39181000      6.64195000     -1.49743000       7
H              -7.87649000      1.89968000      0.08308110       1
I              -5.78660000      2.05379000      5.36931000      53
N              -4.49808000      6.64195000     -1.49743000       7
I               2.47069000     -1.83088000     -7.58262000      53
I               3.20147000      5.54564000     -5.11198000      53
I               3.29919000     -5.49693000     -5.11198000      53
H              -7.01360000     -1.95725000     -3.77045000       1
N               0.92934700     -5.39114000      6.12677000       7
H               6.50251000     -4.90132000     -1.11069000       1
P              -3.75019000     -3.30134000     -6.55234000      15
H               7.91582000      1.94765000      1.48211000       1
N              -3.36499000      2.44798000     -7.19768000       7
C              -7.89308000      2.50979000      0.98834500       6
N               0.83163200      5.65143000      6.12677000       7
I              -1.16764000      6.36609000     -5.32551000      53
I              -1.95686000     -1.17289000     -8.08151000      53
H              -5.43404000      6.20760000     -1.62593000       1
H              -5.21480000      2.32732000     -6.18873000       1
H               4.29827000      7.31597000     -0.70923600       1
I               2.44287000     -1.53536000      8.01540000      53
H               5.59459000     -6.08516000     -2.10849000       1
I               6.83484000     -4.66474000      2.39978000      53
C               1.09452000     -8.53278000      0.98834500       6
H              -4.59161000      7.31597000     -0.70923600       1
H              -4.29366000      7.20469000     -2.34737000       1
P              -3.84838000     -6.79318000      3.92894000      15
H              -0.23286400     -4.38900000      7.57294000       1
H               0.40090400     -6.28845000      6.15759000       1
H               1.77810000     -5.44909000      6.71084000       1
H               4.59622000      7.20469000     -2.34737000       1
H               1.68038000      5.59347000      6.71084000       1
I              -6.51738000     -5.32272000      2.89867000      53
H               2.06553000     -8.56121000      1.48774000       1
H              -8.17147000      3.53910000      0.75185600       1
H               6.40480000      6.14124000     -1.11069000       1
H              -3.49272000      3.43729000     -7.48369000       1
P               5.13969000     -3.30134000     -6.55234000      15
P              -8.30857000     -3.21335000      1.27532000      15
H              -3.70253000      1.86897000     -7.99419000       1
H              -0.00277013     -8.56070000      2.79988000       1
H              -8.69799000      0.96032700      2.17289000       1
H              -0.92389800      6.79772000      5.88615000       1
H              -8.17130000      0.16818300     -4.07104000       1
N              -7.86235000     -1.89929000     -4.35452000       7
I              -1.81195000     -8.55134000     -2.82710000      53
H              -3.49119000      1.46556000      8.37279000       1
H               0.09541800     -5.06885000     -7.68141000       1
H               1.11111000     -9.14289000      0.08308110       1
I              -6.61510000      5.71985000      2.89867000      53
P               0.67949700      0.27849400     -9.20597000      15
H              -0.87634300     -9.09492000      1.48211000       1
H               8.75521000     -0.89715400     -2.90835000       1
N               8.86171000      1.94263000      1.91302000       7
N               0.06954060     -9.09993000      1.91302000       7
H               0.40137700      8.24596000     -4.32370000       1
N              -8.91806000      1.94263000      1.91302000       7
P               5.04151000     -6.79318000      3.92894000      15
I              -4.11725000     -5.08520000      6.66602000      53
I              -5.59070000     -5.49693000     -5.11198000      53
H               9.08177000      0.96032700      2.17289000       1
H               8.16189000     -0.75300400     -4.59513000       1
N               5.52489000      2.44798000     -7.19768000       7
H              -7.53994000     -1.78907000     -5.34224000       1
C              -0.04179460      6.79227000      6.53050000       6
H               0.29008100      4.45217000     -8.30840000       1
I              -5.68841000      5.54564000     -5.11198000      53
I              -8.59727000     -1.16728000      3.84034000      53
I               0.70569900      2.47448000      9.16113000      53
H              -9.02456000     -0.89715400     -2.90835000       1
H               8.78940000      2.48187000      2.79988000       1
I              -7.98828000     -5.07624000     -1.32015000      53
I               6.73712000      6.37783000      2.39978000      53
I              -3.54556000     -8.81735000      1.40962000      53
C              -8.73577000     -0.75845700     -3.95079000       6
I               7.62406000      2.87425000      5.15578000      53
I               4.77263000     -5.08520000      6.66602000      53
H               5.18735000      1.86897000     -7.99419000       1
I              -1.16811000     -8.16832000      5.15578000      53
H              -0.00229732      5.97371000     -7.68141000       1
H              -8.99037000      2.48187000      2.79988000       1
I               2.63878000     -9.08608000     -2.46589000      53
H              -8.39079000     -2.79661000     -4.32370000       1
H               5.39716000      3.43729000     -7.48369000       1
H               3.35765000      2.71575000      8.85536000       1
H               6.53463000      2.25394000     -7.05069000       1
I              -4.21496000      5.95737000      6.66602000      53
C               9.04399000     -0.75845700     -3.95079000       6
I               3.17444000      9.39150000      0.41214400      53
H              -4.39185000      3.71284000      8.13392000       1
P              -8.26038000      4.05997000     -3.89245000      15
H               1.77857000      9.08532000     -3.77045000       1
I              -1.35277000      9.90791000     -0.26542500      53
H               4.49803000      3.71284000      8.13392000       1
I               9.18250000     -1.16728000      3.84034000      53
H               0.52267500      7.71891000      6.41025000       1
H               5.39869000      1.46556000      8.37279000       1
