200
cutoff_factor=1.20000000 nneightol=1.20000000 Lattice="28.67937000       0.00000000       0.00000000       0.00000000      28.86888000       0.00000000       0.00000000       0.00000000      27.12274000" Properties=species:S:1:pos:R:3:Z:I:1
H               1.05040000      0.36902300      1.01897000       1
C               2.03638000     -0.03198320      1.26444000       6
H               2.11338000     -1.19707000     -0.48743100       1
N               2.69111000     -0.48108200      0.00320763       7
I              -0.29164500      2.03093000     -1.91539000      53
H               1.94622000     -0.89203500      1.93040000       1
H               2.84100000      0.30894800     -0.65034400       1
I              -2.86793000     -0.67887000      0.79042600      53
I               0.37255600     -2.46759000     -1.87557000      53
P              -2.14260000     -0.54769100     -2.31403000      15
H               2.66033000      0.73914400      1.72161000       1
H              -1.00238000      3.52091000      0.03112260       1
H               3.63849000     -0.85968100      0.21583600       1
H              -1.09938000      3.37943000      1.70464000       1
I              -0.25860300      1.90895000      3.57079000      53
N              -1.28940000      4.01845000      0.90167600       7
H              -0.64744900     -4.15474000      1.03081000       1
I               0.14697600     -2.63522000      3.51984000      53
P              -2.26372000     -0.56480400      3.93095000      15
I               2.67610000      3.85428000      0.80511100      53
H              -2.83654000     -3.94066000      0.00899858       1
H              -3.31792000      3.48907000      0.74093000       1
H               1.44141000     -0.04635720     -4.73613000       1
H              -0.69250300      4.85465000      1.03081000       1
P               2.22822000      3.98598000     -2.35089000      15
N              -1.24435000     -4.99093000      0.90167600       7
C              -2.72620000      4.39947000      0.85807500       6
I               4.22593000      1.48002000     -2.75761000      53
H              -2.93466000     -4.10603000      1.79341000       1
C              -2.68115000     -4.60991000      0.85807500       6
H              -5.36910000     -0.85968100      0.21583600       1
H              -0.95732600     -5.48848000      0.03112260       1
I              -4.78166000      1.48002000     -2.75761000      53
I              -1.66210000     -0.40774600     -5.47974000      53
H              -2.88159000      5.06872000      0.00899858       1
I               2.72115000     -5.15510000      0.80511100      53
I              -4.24846000     -2.97769000     -2.78147000      53
H               3.41274000     -1.50062000     -4.66672000       1
H              -1.05433000     -5.62996000      1.70464000       1
C               2.08424000     -0.14696100     -5.61351000       6
P               2.27327000     -5.02341000     -2.35089000      15
H              -2.97971000      4.90336000      1.79341000       1
P               2.19878000      3.97550000      3.96812000      15
H              -6.16658000      0.30894800     -0.65034400       1
I               6.13966000     -0.67887000      0.79042600      53
H              -2.08101000      2.23618000     -5.44388000       1
H               1.41666000     -0.19349700      6.09956000       1
I               4.75913000     -2.97769000     -2.78147000      53
H               2.16817000     -2.25479000     -5.48509000       1
N              -6.31647000     -0.48108200      0.00320763       7
H               2.81630000      0.66294800     -5.64357000       1
N               2.81771000     -1.44417000     -5.51514000       7
I               4.29508000      1.57246000      4.43815000      53
H              -3.34650000      2.93715000     -4.61160000       1
H              -3.27286000     -5.52032000      0.74093000       1
H              -6.34725000      0.73914400      1.72161000       1
H              -1.43871000      4.46562000     -4.67903000       1
I              -4.71251000      1.57246000      4.43815000      53
H              -1.39366000     -4.54376000     -4.67903000       1
H               1.48596000     -0.15584100     -6.52752000       1
H               5.68967000      3.48907000      0.74093000       1
P               2.24383000     -5.03389000      3.96812000      15
I               0.32750200      6.54180000     -1.87557000      53
N              -2.76234000      3.02066000     -5.46501000       7
I              -4.37871000     -2.92845000      4.43069000      53
H              -6.89420000     -1.19707000     -0.48743100       1
I               4.62888000     -2.92845000      4.43069000      53
I               1.69794000      4.12626000     -5.48859000      53
C              -6.97120000     -0.03198320      1.26444000       6
I              -0.24659200     -6.97846000     -1.91539000      53
P               6.86499000     -0.54769100     -2.31403000      15
I               0.10192300      6.37417000      3.51984000      53
C               2.01494000     -0.18461700      7.01358000       6
H               3.36207000     -1.63770000      6.28417000       1
H               6.17104000     -3.94066000      0.00899858       1
H              -2.79515000     -3.88178000     -5.58238000       1
C              -2.07810000      4.34565000     -5.55656000       6
I              -1.73139000     -0.44540200      7.14734000      53
H              -7.06136000     -0.89203500      1.93040000       1
H               3.43137000     -1.60004000     -6.34291000       1
H              -5.59484000     -1.50062000     -4.66672000       1
I              -6.33148000      3.85428000      0.80511100      53
H               2.74700000      0.62529200      6.98351000       1
C              -2.03304000     -4.66374000     -5.55656000       6
H               6.07293000     -4.10603000      1.79341000       1
I               1.74299000     -4.88313000     -5.48859000      53
H              -1.54986000      4.32655000      6.15615000       1
H              -3.37130000      2.84597000     -6.29236000       1
C               6.28138000      4.39947000      0.85807500       6
H              -3.44060000      2.80832000      6.33472000       1
N               2.74841000     -1.48183000      7.11194000       7
H               2.09887000     -2.29245000      7.14199000       1
H              -2.15031000      2.19852000      7.18320000       1
P               6.74386000     -0.56480400      3.93095000      15
H               5.66109000      2.93715000     -4.61160000       1
C               6.32644000     -4.60991000      0.85807500       6
H              -1.50481000     -4.68283000      6.15615000       1
I              -4.29351000      6.03169000     -2.78147000      53
H              -1.48056000      4.36421000     -6.47093000       1
I              -0.21355000     -7.10044000      3.57079000      53
H               6.12599000      5.06872000      0.00899858       1
H               6.02787000      4.90336000      1.79341000       1
H               5.73472000     -5.52032000      0.74093000       1
H               1.37211000     -0.08401300      7.89095000       1
H              -7.95719000      0.36902300      1.01897000       1
H              -1.43551000     -4.64518000     -6.47093000       1
H              -2.84021000      5.12761000     -5.58238000       1
H               2.06833000      7.81231000     -0.48743100       1
I               4.71407000      6.03169000     -2.78147000      53
I              -6.28643000     -5.15510000      0.80511100      53
P              -6.77936000      3.98598000     -2.35089000      15
N              -2.83164000      2.98300000      7.16207000       7
H              -3.30144000     -6.07224000     -4.61160000       1
I               1.62864000      4.08860000      7.13849000      53
H              -6.19129000      0.66294800     -5.64357000       1
N              -6.18987000     -1.44417000     -5.51514000       7
N              -2.71729000     -5.98873000     -5.46501000       7
C              -2.14739000      4.30799000      7.07053000       6
H              -2.86445000     -3.91944000      7.04470000       1
H               1.90117000      8.11735000      1.93040000       1
H              -5.57622000     -1.60004000     -6.34291000       1
H              -5.64551000     -1.63770000      6.28417000       1
P              -6.73431000     -5.02341000     -2.35089000      15
I              -4.42376000      6.08094000      4.43069000      53
H               8.00521000      3.52091000      0.03112260       1
C              -2.10234000     -4.70139000      7.07053000       6
N               7.71818000      4.01845000      0.90167600       7
H               7.90820000      3.37943000      1.70464000       1
H               1.09545000     -8.64037000      1.01897000       1
H               3.34344000     -1.53828000      7.96036000       1
I               4.58382000      6.08094000      4.43069000      53
P              -6.80881000      3.97550000      3.96812000      15
I               1.67369000     -4.92079000      7.13849000      53
N               6.24525000      3.02066000     -5.46501000       7
I              -2.91298000      8.33052000      0.79042600      53
H               2.70539000     -8.27024000      1.72161000       1
H               5.56699000      2.80832000      6.33472000       1
H               3.59343000      8.14971000      0.21583600       1
H               5.63629000      2.84597000     -6.29236000       1
C              -6.92335000     -0.14696100     -5.61351000       6
H              -2.03596000     -6.77321000     -5.44388000       1
H              -7.56618000     -0.04635720     -4.73613000       1
N               2.64606000      8.52831000      0.00320763       7
H               2.12312000      6.75460000     -5.48509000       1
P              -2.19442000     -0.52714900     -8.69613000      15
P              -2.18765000      8.46170000     -2.31403000      15
H              -6.83942000     -2.25479000     -5.48509000       1
I               4.27098000     -7.52937000     -2.75761000      53
H               6.92657000      2.23618000     -5.44388000       1
I               8.71594000      2.03093000     -1.91539000      53
H              -2.90951000      5.08995000      7.04470000       1
I               7.34549000     -0.40774600     -5.47974000      53
I              -8.63503000     -2.46759000     -1.87557000      53
H              -3.41579000      2.89949000      8.01549000       1
H               2.88605000     -8.70044000     -0.65034400       1
H               6.21243000     -3.88178000     -5.58238000       1
H              -1.50801000      4.42797000      7.94805000       1
I              -0.18930600      1.94661000     -9.05629000      53
N               7.76324000     -4.99093000      0.90167600       7
C               1.99133000      8.97740000      1.26444000       6
H              -1.46295000     -4.58142000      7.94805000       1
I              -4.73661000     -7.52937000     -2.75761000      53
P              -6.76375000     -5.03389000      3.96812000      15
C               2.08144000     -9.04137000      1.26444000       6
H               8.36014000     -4.15474000      1.03081000       1
H              -6.26059000      0.62529200      6.98351000       1
H              -3.32625000     -6.16342000     -6.29236000       1
I               4.36438000      1.61012000     -8.18894000      53
H               3.36769000      7.50876000     -4.66672000       1
I               0.21627400     -2.59757000     -9.10725000      53
H               1.00534000      9.37841000      1.01897000       1
H              -3.39554000     -6.20107000      6.33472000       1
H               5.70614000     -6.07224000     -4.61160000       1
I              -4.64321000      1.61012000     -8.18894000      53
N              -6.25917000     -1.48183000      7.11194000       7
P              -2.30878000      8.44458000      3.93095000      15
I               8.74898000      1.90895000      3.57079000      53
H               8.31508000      4.85465000      1.03081000       1
I               4.34013000     -7.43693000      4.43815000      53
I              -4.30941000     -2.89079000     -8.19639000      53
I              -9.29923000      2.03093000     -1.91539000      53
H              -7.59093000     -0.19349700      6.09956000       1
H               8.05026000     -5.48848000      0.03112260       1
H               2.79595000      9.31834000     -0.65034400       1
N               2.77266000      7.56522000     -5.51514000       7
N              -2.78658000     -6.02638000      7.16207000       7
H               6.16738000      5.12761000     -5.58238000       1
H              -5.41415000      8.14971000      0.21583600       1
P               2.26807000      4.01315000     -8.65897000      15
I              -4.66745000     -7.43693000      4.43815000      53
N               2.73616000     -9.49047000      0.00320763       7
I               9.38014000     -2.46759000     -1.87557000      53
I               4.69817000     -2.89079000     -8.19639000      53
C               6.92949000      4.34565000     -5.55656000       6
H              -5.66414000     -1.53828000      7.96036000       1
I              -8.86061000     -2.63522000      3.51984000      53
H               7.95326000     -5.62996000      1.70464000       1
C              -6.99265000     -0.18461700      7.01358000       6
N               6.17595000      2.98300000      7.16207000       7
H               7.56888000      4.46562000     -4.67903000       1
