200
cutoff_factor=1.20000000 nneightol=1.20000000 Lattice="29.69224000       0.00000000       0.00000000       0.00000000      30.29203000       0.00000000       0.00000000       0.00000000      29.54527000" Properties=species:S:1:pos:R:3:Z:I:1
H              -0.68413200      0.12100900      1.26371000       1
N              -0.23076400      0.33971300      2.18091000       7
H               0.80693400      0.29851200      2.11040000       1
I              -2.53596000     -0.28002200     -0.41128600      53
H              -0.49643400      1.32502000      2.41298000       1
C              -0.71439300     -0.60205400      3.22685000       6
H              -0.47941400     -1.62041000      2.91094000       1
H              -1.79365000     -0.47399600      3.33549000       1
I               1.38602000     -3.57675000      1.54870000      53
H              -0.20238100     -0.36536200      4.16093000       1
I               3.17661000     -1.74493000     -2.29840000      53
I               3.30481000      0.17491900      2.75939000      53
P               3.98189000     -2.01813000      0.69026200      15
I               1.97185000      4.06059000     -0.48021800      53
I              -0.72672000      1.49560000     -4.26084000      53
H               1.35995000     -1.92284000     -4.00889000       1
I              -1.15971000      3.66448000      2.72090000      53
H               0.42844400     -0.70031800     -4.70325000       1
P              -3.39902000      0.05596100     -3.38389000      15
N               0.77235500     -1.67596000     -4.84084000       7
P               1.16722000      3.78922000     -3.46936000      15
H              -0.05721580     -2.29507000     -4.89634000       1
P              -5.10357000     -2.01813000      0.69026200      15
H               3.78791000      3.88789000      1.23174000       1
I              -3.20994000     -4.31308000      1.47838000      53
H               3.22788000      3.00146000      3.41995000       1
H              -3.87893000      3.51754000      2.11743000       1
P              -0.53774400     -5.75528000      0.60391600      15
P              -0.53771100      5.86346000      0.60391600      15
H               2.59819000     -0.37243900      5.52918000       1
I               3.76279000      2.23271000     -4.33180000      53
I              -1.40061000      5.52585000     -2.36835000      53
H               2.70940000      4.70606000      3.21524000       1
C               3.56471000      4.03285000      3.30537000       6
N               4.37577000      4.13519000      2.06338000       7
I              -5.78064000      0.17491900      2.75939000      53
I              -2.77750000     -2.14605000     -5.49778000      53
C               1.58515000     -1.77532000     -6.08184000       6
H               2.43911000     -1.10066000     -5.98980000       1
I               6.54949000     -0.28002200     -0.41128600      53
I              -5.90885000     -1.74493000     -2.29840000      53
N              -4.70968000      4.13519000      2.06338000       7
P               5.68644000      0.05596100     -3.38389000      15
H               5.20653000      3.51754000      2.11743000       1
I              -1.40065000     -6.09289000     -2.36835000      53
H              -5.29755000      3.88789000      1.23174000       1
H              -4.36739000      5.11148000      1.92608000       1
I              -0.90875800      0.16906600      6.93334000      53
H              -0.82837900      2.99628000      6.27306000       1
H               1.92398000     -2.80597000     -6.19727000       1
H               0.95570100     -1.48252000     -6.92440000       1
C               3.11093000     -0.60969000      6.46272000       6
I              -5.32267000      2.23271000     -4.33180000      53
H               4.71806000      5.11148000      1.92608000       1
H              -1.79666000      4.31974000      5.54594000       1
H               4.19463000      4.32572000      4.14757000       1
H              -5.85758000      3.00146000      3.41995000       1
I               5.87552000     -4.31308000      1.47838000      53
H               2.87662000     -1.62842000      6.77791000       1
C              -5.52074000      4.03285000      3.30537000       6
H               4.19005000     -0.48104900      6.35347000       1
C              -1.16722000      4.02693000      6.38849000       6
H              -3.44002000     -4.48573000     -5.19192000       1
H              -3.25171000     -5.69065000     -4.04375000       1
H              -4.89083000      4.32572000      4.14757000       1
H               1.58995000      0.28977900      7.58075000       1
I               1.97182000     -7.55815000     -0.48021800      53
H              -3.45644000      4.18806000     -5.69242000       1
H              -3.25167000      5.92809000     -4.04375000       1
H               2.89307000      1.31653000      7.27841000       1
N               2.62760000      0.33096100      7.50975000       7
H              -0.31325000      4.70159000      6.48054000       1
H               7.29181000     -0.47399600      3.33549000       1
H              -4.89540000     -0.48104900      6.35347000       1
H              -4.36743000     -6.50726000      1.92608000       1
H               2.70936000     -6.91268000      3.21524000       1
I               1.84361000     -5.63319000     -5.53699000      53
I              -3.20990000      7.30566000      1.47838000      53
I              -7.11361000      4.06059000     -0.48021800      53
N              -3.70549000     -5.47130000     -4.96059000       7
H               4.71803000     -6.50726000      1.92608000       1
I               1.38606000      8.04199000      1.54870000      53
I               1.84364000      5.98555000     -5.53699000      53
H              -2.14300000      5.33543000     -6.11686000       1
I              -1.15974000     -7.95426000      2.72090000      53
H               8.40132000      0.12100900      1.26371000       1
H              -6.48726000     -0.37243900      5.52918000       1
H              -8.27852000      0.29851200      2.11040000       1
H              -6.37606000      4.70606000      3.21524000       1
H               4.34231000     -5.51248000     -4.88958000       1
C              -3.22213000      5.20679000     -6.00761000       6
I              -7.69943000     -3.57675000      1.54870000      53
I               6.30796000     -2.14605000     -5.49778000      53
I               3.55559000      3.65621000      6.97256000      53
P               1.16718000     -7.82952000     -3.46936000      15
H               3.78788000     -7.73085000      1.23174000       1
H              -2.13846000     -1.47654000     -8.32276000       1
N              -3.70546000      6.14744000     -4.96059000       7
H              -4.74315000     -5.51248000     -4.88958000       1
H              -2.80958000      3.50719000      7.57400000       1
C              -5.97452000     -0.60969000      6.46272000       6
H               5.64544000     -4.48573000     -5.19192000       1
N              -1.98001000      4.12629000      7.62950000       7
N               4.37574000     -7.48355000      2.06338000       7
H              -7.72551000     -1.92284000     -4.00889000       1
H               4.34234000      6.10626000     -4.88958000       1
I               1.01039000     -3.58377000      8.13854000      53
H               3.08139000      0.11160900      8.42659000       1
C               8.37106000     -0.60205400      3.22685000       6
C               3.56468000     -7.58589000      3.30537000       6
H              -6.64634000     -1.10066000     -5.98980000       1
H               8.58902000      1.32502000      2.41298000       1
H              -2.14304000     -6.28331000     -6.11686000       1
H               5.62902000      4.18806000     -5.69242000       1
N              -4.70971000     -7.48355000      2.06338000       7
H               5.83375000     -5.69065000     -4.04375000       1
N               8.85469000      0.33971300      2.18091000       7
N               5.37996000     -5.47130000     -4.96059000       7
I               7.92575000      3.66448000      2.72090000      53
H              -4.74311000      6.10626000     -4.88958000       1
H              -3.87896000     -8.10121000      2.11743000       1
H               8.60604000     -1.62041000      2.91094000       1
H               5.83378000      5.92809000     -4.04375000       1
H              -6.20883000     -1.62842000      6.77791000       1
H              -1.79670000     -7.29900000      5.54594000       1
C              -3.22216000     -6.41195000     -6.00761000       6
P              -1.58518000     -2.02726000      9.00097000      15
H               4.19460000     -7.29303000      4.14757000       1
H              -1.39242000      3.87942000      8.46144000       1
P              -7.91824000      3.78922000     -3.46936000      15
H              -5.29758000     -7.73085000      1.23174000       1
H              -3.43998000      7.13302000     -5.19192000       1
H              -0.31328300     -6.91715000      6.48054000       1
I               5.87555000      7.30566000      1.47838000      53
I               8.35874000      1.49560000     -4.26084000      53
N               5.38000000      6.14744000     -4.96059000       7
N              -9.31622000      0.33971300      2.18091000       7
H              -2.32392000      5.10194000      7.76709000       1
H              -3.73486000      5.44404000     -6.94116000       1
I              -5.52986000      3.65621000      6.97256000      53
H              -6.19238000      1.31653000      7.27841000       1
H              -4.89086000     -7.29303000      4.14757000       1
C              -2.76838000     -1.76940000     -9.16497000       6
I               7.68484000      5.52585000     -2.36835000      53
N              -8.31310000     -1.67596000     -4.84084000       7
H               8.88307000     -0.36536200      4.16093000       1
H               3.22784000     -8.61728000      3.41995000       1
C              -7.50031000     -1.77532000     -6.08184000       6
H              -9.76959000      0.12100900      1.26371000       1
H               5.20649000     -8.10121000      2.11743000       1
H              -8.65701000     -0.70031800     -4.70325000       1
H              -7.16147000     -2.80597000     -6.19727000       1
C               5.86333000      5.20679000     -6.00761000       6
I              -3.47912000     -4.32088000      8.20949000      53
N              -6.45785000      0.33096100      7.50975000       7
H              -6.37609000     -6.91268000      3.21524000       1
C              -5.52078000     -7.58589000      3.30537000       6
H              -9.58189000      1.32502000      2.41298000       1
H              -3.10521000     -2.80080000     -9.05039000       1
H              -3.45647000     -7.43068000     -5.69242000       1
C              -1.16725000     -7.59181000      6.38849000       6
H              -3.62369000     -1.09619000     -9.25510000       1
H              -3.73490000     -6.17470000     -6.94116000       1
I               7.68481000     -6.09289000     -2.36835000      53
I               1.59265000     -2.13778000     -9.74943000      53
H               9.89239000      0.29851200      2.11040000       1
H               7.28879000      4.31974000      5.54594000       1
H              -9.56487000     -1.62041000      2.91094000       1
H              -9.28784000     -0.36536200      4.16093000       1
H               2.55002000      5.45112000     -8.30940000       1
H               5.35059000      5.44404000     -6.94116000       1
P               8.54771000     -5.75528000      0.60391600      15
C              -9.79985000     -0.60205400      3.22685000       6
H              -6.00407000      0.11160900      8.42659000       1
P               8.54774000      5.86346000      0.60391600      15
I              -7.11364000     -7.55815000     -0.48021800      53
H              -2.32395000     -6.51680000      7.76709000       1
P               3.98192000      9.60062000      0.69026200      15
H              -0.47938100      9.99833000      2.91094000       1
H               6.27588000      3.50719000      7.57400000       1
H               5.64547000      7.13302000     -5.19192000       1
H               9.02824000     -2.29507000     -4.89634000       1
H              -0.05718270      9.32367000     -4.89634000       1
C               5.86329000     -6.41195000     -6.00761000       6
H               1.35998000      9.69590000     -4.00889000       1
H              -0.49646700    -10.29370000      2.41298000       1
H              -9.14267000     -2.29507000     -4.89634000       1
I               3.17664000      9.87381000     -2.29840000      53
H               0.95875100      5.34249000     -9.13484000       1
H               9.51390000     -0.70031800     -4.70325000       1
H               2.54998000     -6.16762000     -8.30940000       1
H              -1.12657000     -2.28472000    -10.35290000       1
H              -7.49551000      0.28977900      7.58075000       1
H               6.94245000      5.33543000     -6.11686000       1
H               2.27298000      4.19607000     -9.55939000       1
H              -1.61503000     -0.69077500    -10.54430000       1
H              -0.82841200     -8.62246000      6.27306000       1
I              -7.24185000     -5.63319000     -5.53699000      53
N              -1.95732000     -1.66707000    -10.40700000       7
H               5.35056000     -6.17470000     -6.94116000       1
