200
cutoff_factor=1.20000000 nneightol=1.20000000 Lattice="28.43636000       0.00000000       0.00000000       0.00000000      27.03231000       0.00000000       0.00000000       0.00000000      28.47169000" Properties=species:S:1:pos:R:3:Z:I:1
H              -0.84248100     -0.15700400     -0.37255100       1
N              -1.03565000     -0.12754700     -1.39843000       7
H              -0.18135500      0.13018700     -1.90985000       1
I              -0.94272100     -0.39496800      2.14298000      53
H              -1.78457000      0.58272100     -1.55239000       1
C              -1.53705000     -1.45858000     -1.84319000       6
H              -0.76369800     -2.20419000     -1.65103000       1
I               2.88154000      1.28605000      0.46335500      53
H              -2.43993000     -1.69338000     -1.27579000       1
P               0.89873900      2.16120000      2.82773000      15
H              -1.76238000     -1.40669000     -2.90972000       1
H               1.90601000     -2.55941000      1.92587000       1
I               2.16417000     -2.63984000     -1.80393000      53
I              -0.70328400      4.01243000      0.68547500      53
H               2.79242000      3.64502000     -0.42926300       1
I              -4.03496000      1.75600000     -1.62148000      53
N               2.15080000     -3.33900000      2.55321000       7
P               4.51785000     -0.43420700     -1.65231000      15
I              -1.22543000     -4.65147000      0.54079900      53
H               1.33291000     -3.53677000      3.17023000       1
P              -2.77946000     -2.94656000      2.84818000      15
H              -4.26637000      2.05719000      1.62836000       1
H              -4.24380000      0.76497000      2.87255000       1
H               2.34167000     -4.18912000      1.97765000       1
H               1.79060000      4.23546000     -2.54983000       1
I               3.09237000      1.14826000     -4.11848000      53
I              -4.89957000     -2.09867000      0.60256300      53
I              -0.72555200      3.73813000     -3.92702000      53
N               2.86863000      4.62390000     -0.78212100       7
H               3.10527000     -2.14436000      4.00739000       1
H               2.12055000      5.18648000     -0.34041000       1
C              -4.71631000      1.69726000      2.55641000       6
C               3.34012000     -3.01686000      3.39613000       6
I               2.49027000      0.51103600      5.04009000      53
I              -0.85084500     -0.51994300     -5.58849000      53
P              -2.76473000      4.71367000     -1.68309000      15
H               4.18544000     -2.80764000      2.73919000       1
H               2.35280000     -2.79387000     -4.49237000       1
C               2.76178000      4.64544000     -2.26936000       6
H               5.14791000      1.55703000      2.43174000       1
H              -3.48146000      2.85135000      3.81979000       1
P               0.90351600     -5.62634000     -1.68309000      15
H               3.56777000      4.03489000     -2.68266000       1
I              -1.20129000      3.14571000      5.04419000      53
I              -1.16932000     -4.72536000     -3.97489000      53
H               3.78974000      4.99299000     -0.46389900       1
I              -0.51949300     -3.95535000      4.89650000      53
H               2.38046000     -1.59771000     -5.65763000       1
H              -3.77159000      1.22483000     -4.98338000       1
N              -4.49619000      2.72425000      3.61846000       7
H              -3.48172000     -5.34703000     -0.46389900       1
H              -0.04410020     -1.06872000      6.33233000       1
I               6.04014000     -2.09867000      0.60256300      53
I               2.80875000      4.71646000      3.42650000      53
H              -5.79179000      1.55703000      2.43174000       1
H              -0.75694200      0.57530400      6.40835000       1
N               2.78392000     -2.51215000     -5.39653000       7
P               0.83241100      2.15705000     -6.16680000      15
H              -1.32657000      6.15089000      1.97765000       1
I              -4.86089000     -2.09069000     -3.97080000      53
H               3.55625000     -3.87879000      4.03160000       1
P              -6.42186000     -0.43420700     -1.65231000      15
H              -1.82126000     -0.86815800      6.46515000       1
C              -0.85008500     -0.45817200      6.74563000       6
I              -4.33742000     -1.36548000      5.08796000      53
H               3.79865000     -2.38505000     -5.19519000       1
H               2.85492000      5.67892000     -2.60663000       1
H              -4.41654000     -4.66110000     -2.60663000       1
C               6.22340000      1.69726000      2.55641000       6
H              -4.89965000      3.63868000      3.35736000       1
I               2.96496000     -6.32758000      0.68547500      53
H              -4.92731000      2.44252000      4.52262000       1
H               6.67333000      2.05719000      1.62836000       1
H              -4.22257000      2.95925000     -5.00760000       1
C              -3.98772000      2.08675000     -5.61886000       6
N              -4.40283000     -5.71611000     -0.78212100       7
H              -5.15091000     -5.15353000     -0.34041000       1
I               6.90474000      1.75600000     -1.62148000      53
H               6.69591000      0.76497000      2.87255000       1
H              -3.14240000      2.29597000     -6.27580000       1
P              -2.76086000     -3.07520000     -6.18725000      15
H               1.89722000      3.82971000      6.10526000       1
I              -4.89368000      5.68854000      0.54079900      53
I               6.07882000     -2.09069000     -3.97080000      53
H              -1.23141000     -6.70133000      3.35736000       1
N              -1.51744000      7.00101000      2.55321000       7
C              -4.50968000     -5.69457000     -2.26936000       6
H              -0.11199100      6.46122000      4.03160000       1
H               1.48832000     -3.67937000     -6.58324000       1
H               5.78880000     -5.15353000     -0.34041000       1
H              -3.70370000     -6.30512000     -2.68266000       1
C               2.56380000     -3.53914000     -6.45858000       6
H               6.04005000      3.63868000      3.35736000       1
H              -6.75426000     -2.80764000      2.73919000       1
H               4.94478000      1.56684000     -5.84475000       1
H              -2.33533000      6.80324000      3.17023000       1
N               6.44352000      2.72425000      3.61846000       7
H               6.01239000      2.44252000      4.52262000       1
I              -4.46271000     -5.62356000      3.42650000      53
H               0.51719900      7.53237000      2.73919000       1
I              -1.50408000      7.70017000     -1.80393000      53
H              -4.47905000     -6.69499000     -0.42926300       1
C              -0.32812500      7.32315000      3.39613000       6
I              -8.05816000      1.28605000      0.46335500      53
H               3.03631000     -4.47143000     -6.14243000       1
H              -1.76223000      7.78061000      1.92587000       1
I               2.94269000     -6.60188000     -3.92702000      53
N              -0.74323300     -0.47971200      8.23287000       7
I               6.04603000      5.68854000      0.54079900      53
C               2.12255000      3.77782000      7.17179000       6
H               0.18678800     -7.48866000      3.81979000       1
I              -4.83757000      5.61465000     -3.97489000      53
H               6.52317000     -4.66110000     -2.60663000       1
I               6.60229000     -1.36548000      5.08796000      53
H              -0.59813000     -8.28282000      1.62836000       1
N              -5.17704000      1.76461000     -6.46177000       7
N              -0.82794300     -7.61577000      3.61846000       7
H               2.89590000      3.03221000      7.36396000       1
H              -5.99493000      1.56684000     -5.84475000       1
H              -0.63193400      5.86858000     -6.14243000       1
H               0.17787600     -0.11062800      8.55109000       1
H               5.45885000     -6.10456000     -2.54983000       1
H               3.01374000     -3.17921000     -7.38663000       1
H              -5.48086000     -6.10456000     -2.54983000       1
I               2.37189000      8.24134000      0.60256300      53
H               1.21967000      3.54302000      7.73920000       1
P               4.56311000     -0.38994100      7.33190000      15
H              -4.98617000      0.91449100     -7.03734000       1
N               6.53688000     -5.71611000     -0.78212100       7
H              -7.14996000      4.99299000     -0.46389900       1
I              -0.36672000     -8.58401000     -1.62148000      53
H              -0.81945000     -1.45860000      8.58572000       1
I               2.66914000      4.70865000     -6.87200000      53
I               3.29288000     -3.34762000      7.39351000      53
H               8.49978000     -1.69338000     -1.27579000       1
H              -1.49131000      0.08287000      8.67458000       1
I               2.38643000      0.45213900     -8.47419000      53
H               7.16812000      1.22483000     -4.98338000       1
H              -7.37194000      4.03489000     -2.68266000       1
N               5.76267000      1.76461000     -6.46177000       7
H               7.45825000      2.85135000      3.81979000       1
C              -7.59959000     -3.01686000      3.39613000       6
H              -1.31545000      7.54614000     -4.49237000       1
C               6.43003000     -5.69457000     -2.26936000       6
H               6.71714000      2.95925000     -5.00760000       1
H              -8.14729000      3.64502000     -0.42926300       1
H              -0.55432300     -7.38076000     -5.00760000       1
I              -7.84733000      1.14826000     -4.11848000      53
I              -1.28770000      3.00495000     -8.41242000      53
H              -7.83443000     -2.14436000      4.00739000       1
I              -4.18774000      6.38466000      4.89650000      53
C              -1.04806000     -8.64276000      2.55641000       6
P               4.49201000      7.39345000      2.84818000      15
I               2.46695000     -7.19430000      5.04419000      53
P               8.16025000     -2.94656000      2.84818000      15
H              -0.56297100      8.19565000      4.00739000       1
H              -7.14105000     -2.38505000     -5.19519000       1
C               6.95198000      2.08675000     -5.61886000       6
H              -1.25907000     -7.89749000      4.52262000       1
H               7.45799000     -5.34703000     -0.46389900       1
I               6.10214000      5.61465000     -3.97489000      53
P              -2.76226000      4.80219000      7.36267000      15
I              -5.11594000      2.59656000      7.21105000      53
I               6.47700000     -5.62356000      3.42650000      53
P               0.90598000     -5.53782000      7.36267000      15
H               5.95354000      0.91449100     -7.03734000       1
H              -7.38345000     -3.87879000      4.03160000       1
H              -5.42183000      2.54421000     -7.08911000       1
H               9.15514000      0.58272100     -1.55239000       1
H               6.46066000     -6.69499000     -0.42926300       1
N              -8.07107000      4.62390000     -0.78212100       7
H               5.51788000      2.54421000     -7.08911000       1
I              -8.77554000     -2.63984000     -1.80393000      53
H              -2.12355000     -8.78299000      2.43174000       1
H              -4.43194000      8.13582000     -1.65103000       1
C              -1.10444000      6.80087000     -6.45858000       6
I              -0.77805500     -3.95035000     -8.55163000      53
H              -3.79322000     -4.97343000      7.10514000       1
I               2.41057000      8.24932000     -3.97080000      53
H              -1.53905000     -0.04991540     -9.35540000       1
I              -4.36288000     -1.22397000     -8.32951000      53
H               0.13014600     -0.24341300     -9.47889000       1
H               0.13041000      7.95497000     -5.19519000       1
N               2.62395000      5.10885000      7.61655000       7
N              -0.88432100      7.82786000     -5.39653000       7
H               3.47824000      5.36659000      7.10514000       1
H              -9.03370000     -2.55941000      1.92587000       1
P               8.17498000      4.71367000     -1.68309000      15
H              -2.17993000      6.66064000     -6.58324000       1
H              -0.86718100     -1.59138000     -9.44425000       1
I               5.82376000      2.59656000      7.21105000      53
H               1.87503000      5.81912000      7.46260000       1
C              -8.17792000      4.64544000     -2.26936000       6
C               9.40266000     -1.45858000     -1.84319000       6
P              -6.37659000     -0.38994100      7.33190000      15
H               9.17733000     -1.40669000     -2.90972000       1
N              -8.78890000     -3.33900000      2.55321000       7
H              -8.59803000     -4.18912000      1.97765000       1
P               4.56698000     -8.17882000      2.82773000      15
N              -0.79096400     -0.61249800     -9.79711000       7
