200
cutoff_factor=1.20000000 nneightol=1.20000000 Lattice="28.64483000       0.00000000       0.00000000       0.00000000      29.07188000       0.00000000       0.00000000       0.00000000      29.25576000" Properties=species:S:1:pos:R:3:Z:I:1
I               1.12714000      1.00681000     -0.21198700      53
P              -1.23039000     -1.13149000     -0.00936820      15
H              -0.75081100      2.33137000     -2.15568000       1
H               2.36866000     -1.24043000      2.00939000       1
H               2.16444000     -1.25607000     -2.44795000       1
I              -0.72523300     -1.31230000      3.17771000      53
I              -3.35571000      1.24085000      0.21198800      53
I               0.81380900     -3.56553000     -0.41668300      53
H              -0.77170000      3.26205000      1.57078000       1
I              -1.57800000     -1.13547000     -3.22172000      53
H              -1.22813000      2.15377000      2.90639000       1
C               3.00247000     -0.68336400      2.70308000       6
H               2.39425000     -0.04690400      3.34985000       1
H               3.71115000     -1.01440000     -1.57078000       1
C               3.20409000     -0.93217900     -2.53488000       6
C              -1.48038000      2.93102000     -2.70308000       6
C              -1.27876000      3.17983000      2.53489000       6
H               3.73204000     -0.08371480      2.15567000       1
H               3.25472000      0.09388680     -2.90637000       1
H              -2.11419000      3.48809000     -2.00939000       1
H              -2.08860000      2.29457000     -3.34986000       1
P               3.25246000      3.37915000      0.00936846      15
H              -2.31841000      3.50372000      2.44796000       1
I              -3.66904000     -3.17748000      0.41668200      53
H              -0.61555200     -3.92917000      3.19614000       1
H               0.41367500      3.79814000      3.61059000       1
N              -0.74312800      3.90696000     -3.55738000       7
H              -0.16139700     -4.46120000     -2.96404000       1
N              -0.58786500      4.06949000      3.50919000       7
H              -0.16139600      4.52948000     -2.96404000       1
H              -0.13619000      3.38552000     -4.22777000       1
N               3.73972000     -1.65929000      3.55739000       7
I               2.90485000      3.38314000      3.22172000      53
I               0.81381000      5.42514000     -0.41668300      53
N               3.89499000     -1.82183000     -3.50920000       7
H              -5.25455000     -1.01440000     -1.57078000       1
H               3.08461000     -2.22935000      4.12450000       1
H              -4.06918000     -1.55048000     -3.61059000       1
H              -5.23366000     -0.08371480      2.15567000       1
H               4.32145000     -2.28182000      2.96405000       1
I               5.60999000      1.24085000      0.21198800      53
H               3.86730000     -2.81385000     -3.19615000       1
H               3.42683000     -1.79482000     -4.43967000       1
H              -4.64425000     -2.28182000      2.96405000       1
H              -0.77170100     -5.72862000      1.57078000       1
H              -0.61555100      5.06151000      3.19614000       1
N              -0.58786700     -4.92118000      3.50919000       7
I               3.75762000      3.55996000     -3.17771000      53
H              -1.05602000      4.04249000      4.43967000       1
H               4.34666000     -1.13786000      4.22777000       1
I               5.29666000     -3.17748000      0.41668200      53
H              -2.11419000     -5.50259000     -2.00939000       1
H              -1.39823000      4.47702000     -4.12449000       1
N              -0.74313000     -5.08372000     -3.55738000       7
H              -1.39823000     -4.51366000     -4.12449000       1
H               4.89652000     -1.55048000     -3.61059000       1
I               0.73845000      1.74621000     -6.00677000      53
H               0.41367300     -5.19253000      3.61059000       1
C              -5.76162000     -0.93217900     -2.53488000       6
H              -4.61904000     -1.13786000      4.22777000       1
H              -5.71098000      0.09388680     -2.90637000       1
N              -5.07072000     -1.82183000     -3.50920000       7
H              -2.31841000     -5.48695000      2.44796000       1
C              -1.27877000     -5.81084000      2.53489000       6
P              -0.98060900     -0.89688900     -6.34570000      15
P               3.25246000     -5.61153000      0.00936846      15
P              -0.98061000     -1.09861000      6.34623000      15
N              -5.22598000     -1.65929000      3.55739000       7
C              -5.96323000     -0.68336400      2.70308000       6
P              -5.71324000      3.37915000      0.00936846      15
H              -5.09840000     -2.81385000     -3.19615000       1
H              -1.05603000     -4.94818000      4.43967000       1
C              -1.48038000     -6.05965000     -2.70308000       6
I              -3.66904000      5.81319000      0.41668200      53
I               0.73844900      1.54448000      6.68517000      53
I               1.70540000     -2.75151000     -6.17379000      53
H              -6.59704000     -1.24043000      2.00939000       1
H              -0.13619100     -5.60515000     -4.22777000       1
H              -0.75081200     -6.65931000     -2.15568000       1
I              -5.20808000      3.55996000     -3.17771000      53
I               2.90485000     -5.60754000      3.22172000      53
I              -3.74440000      0.50145100      6.00677000      53
H              -5.53887000     -1.79482000     -4.43967000       1
I               3.75762000     -5.43072000     -3.17771000      53
H              -6.80126000     -1.25607000     -2.44795000       1
I               1.70540000     -2.95323000      6.51815000      53
H              -6.57145000     -0.04690400      3.34985000       1
H              -5.88109000     -2.22935000      4.12450000       1
H              -1.22813000     -6.83690000      2.90639000       1
I              -6.06085000      3.38314000      3.22172000      53
I              -3.74440000      0.70317600     -6.68517000      53
H              -2.08860000     -6.69611000     -3.34986000       1
P               7.73531000     -1.13149000     -0.00936820      15
I              -2.77745000     -3.99151000      6.17379000      53
I               5.29666000      5.81319000      0.41668200      53
P               3.50224000      3.14455000      6.34571000      15
H               6.64729000      3.50372000      2.44796000       1
I              -7.83856000      1.00681000     -0.21198700      53
H               6.85152000      3.48809000     -2.00939000       1
P              -1.23039000      7.85919000     -0.00936820      15
H               3.86730000      6.17683000     -3.19615000       1
I               5.22130000      0.50145100      6.00677000      53
P               3.50224000      3.34628000     -6.34623000      15
H               6.87710000      2.29457000     -3.34986000       1
P              -5.71324000     -5.61153000      0.00936846      15
I              -2.77745000     -3.78978000     -6.51815000      53
I               1.12714000     -7.98387000     -0.21198700      53
I               7.38770000     -1.13547000     -3.22172000      53
I              -5.20808000     -5.43072000     -3.17771000      53
I              -0.72523100      7.67838000      3.17771000      53
H               2.36867000      7.75024000      2.00939000       1
H               2.16444000      7.73460000     -2.44795000       1
I              -2.77745000      4.99917000      6.17379000      53
I              -3.35571000     -7.74982000      0.21198800      53
C               7.48532000      2.93102000     -2.70308000       6
H               3.08462000      6.76133000      4.12450000       1
I               5.22130000      0.70317600     -6.68517000      53
H               4.32145000      6.70885000      2.96405000       1
H               7.73757000      2.15377000      2.90639000       1
H              -5.09840000      6.17683000     -3.19615000       1
I              -1.57800000      7.85520000     -3.22172000      53
H              -4.64425000      6.70885000      2.96405000       1
C               7.68694000      3.17983000      2.53489000       6
I              -2.77745000      5.20089000     -6.51815000      53
H               8.21489000      2.33137000     -2.15568000       1
I              -6.06085000     -5.60754000      3.22172000      53
N               3.89499000      7.16885000     -3.50920000       7
I              -8.15189000     -3.56553000     -0.41668300      53
I               8.24047000     -1.31230000      3.17771000      53
H               3.71115000      7.97627000     -1.57078000       1
I               1.70540000      6.23917000     -6.17379000      53
P              -5.46346000      3.14455000      6.34571000      15
H               8.19400000      3.26205000      1.57078000       1
H               6.64729000     -5.48695000      2.44796000       1
N               3.73972000      7.33138000      3.55739000       7
H               6.85151000     -5.50259000     -2.00939000       1
P              -5.46346000      3.34628000     -6.34623000      15
C               3.20409000      8.05850000     -2.53488000       6
H              -0.13619100      3.18380000      8.46416000       1
I               1.70540000      6.03744000      6.51815000      53
H               3.42683000      7.19585000     -4.43967000       1
H               3.42683000     -1.99655000      8.25227000       1
P               3.50224000     -5.64440000     -6.34623000      15
H              -4.06918000      7.44020000     -3.61059000       1
C               3.00247000      8.30731000      2.70308000       6
P               3.50224000     -5.84613000      6.34571000      15
H               3.08461000     -2.02762000     -8.56743000       1
H              -1.05602000      4.24422000     -8.25227000       1
I               0.73844800     -7.24447000     -6.00677000      53
N              -5.07071000      7.16885000     -3.50920000       7
H               4.34666000     -0.93613400     -8.46416000       1
I               5.60999000     -7.74982000      0.21198800      53
H              -1.05602000     -4.74646000     -8.25227000       1
I              -0.72523200     -1.11057000     -9.51422000      53
I               6.18825000     -3.99151000      6.17379000      53
H               4.89653000      7.44020000     -3.61059000       1
H               2.39425000      0.15482100     -9.34208000       1
H              -1.39823000      4.27529000      8.56744000       1
H              -5.25455000      7.97627000     -1.57078000       1
N              -5.22598000      7.33138000      3.55739000       7
H              -4.61904000     -0.93613400     -8.46416000       1
I              -1.57800000     -1.33720000      9.47021000      53
H               7.56747000      4.47702000     -4.12449000       1
H               7.56747000     -4.51366000     -4.12449000       1
I               6.18825000     -3.78978000     -6.51815000      53
H               8.35015000     -3.92917000      3.19614000       1
N               8.22257000      3.90696000     -3.55738000       7
H              -2.08860000      2.09285000      9.34208000       1
I              -8.15189000      5.42514000     -0.41668300      53
H               2.39425000      8.94377000      3.34985000       1
H              -5.88109000      6.76133000      4.12450000       1
H              -1.39823000     -4.71538000      8.56744000       1
N              -0.74312900      3.70523000      9.13455000       7
H               3.73204000      8.90696000      2.15567000       1
H               3.25472000     -8.89679000     -2.90637000       1
I              -7.26030000     -2.75151000     -6.17379000      53
H               4.34666000      7.85282000      4.22777000       1
H               7.90968000      4.04249000      4.43967000       1
H               2.39425000     -9.03758000      3.34985000       1
H               0.41367600      3.99987000     -9.08134000       1
N               8.37784000      4.06949000      3.50919000       7
C               7.68694000     -5.81084000      2.53489000       6
N               3.73972000     -1.45757000     -9.13455000       7
C               7.48532000     -6.05965000     -2.70308000       6
H              -8.55203000      3.79814000      3.61059000       1
I               0.73844700     -7.44619000      6.68517000      53
H              -4.61904000      7.85282000      4.22777000       1
H               3.73204000     -9.07439000      2.15567000       1
I               1.12715000      9.99749000     -0.21198700      53
I               6.18825000      4.99917000      6.17379000      53
H               3.25472000      9.08456000     -2.90637000       1
P              -5.46346000     -5.64440000     -6.34623000      15
H              -4.06918000     -1.75220000      9.08135000       1
H              -5.53887000      7.19585000     -4.43967000       1
H               8.19400000     -5.72862000      1.57078000       1
H              -5.53888000     -1.99655000      8.25227000       1
H              -1.22813000      2.35550000     -9.78555000       1
N              -0.58786400      4.27122000     -9.18274000       7
I              10.09280000      1.00681000     -0.21198700      53
H               6.87710000     -6.69611000     -3.34986000       1
