200
cutoff_factor=1.20000000 nneightol=1.20000000 Lattice="29.53284000       0.00000000       0.00000000       0.00000000      28.97812000       0.00000000       0.00000000       0.00000000      28.83683000" Properties=species:S:1:pos:R:3:Z:I:1
I              -0.81789300      0.81867600     -1.35004000      53
P               0.88971900     -1.87832000     -0.76510800      15
H               0.92339300      1.29825000      1.89604000       1
I               0.67324100     -1.28928000      2.34024000      53
H              -0.26821000      2.46328000      1.85781000       1
N               0.76366200      2.32591000      1.91466000       7
H               1.21850000      2.77334000      1.09139000       1
H              -2.41175000     -0.66804300      2.28773000       1
H               0.81349900      1.43983000     -3.27962000       1
I               3.68728000     -0.07356310     -0.62143300      53
I              -1.78206000     -3.65390000     -0.91340300      53
C              -3.05199000     -1.32135000      2.88455000       6
P              -3.46438000      2.63631000     -0.79290400      15
H              -3.13302000     -2.80948000      1.39669000       1
I              -2.77425000      2.61148000      2.33013000      53
C               1.27818000      2.91546000      3.18049000       6
I               1.45282000     -2.08361000     -3.91751000      53
N               1.18206000      1.95378000     -4.10774000       7
H              -2.45152000     -1.92776000      3.56605000       1
H               0.77931700      2.42574000      4.01921000       1
N              -3.78721000     -2.23468000      1.96046000       7
H               2.35644000      2.74711000      3.22565000       1
H              -4.36293000     -1.67967000      1.29413000       1
H              -2.26565000     -1.11447000     -4.14968000       1
H               4.53285000     -1.67967000      1.29413000       1
H               1.20907000      3.80291000     -3.10346000       1
H              -4.13708000     -1.35006000     -2.59622000       1
H               2.21576000      1.87243000     -4.15760000       1
H              -3.78339000     -0.73241500      3.44024000       1
H              -3.35284000     -2.80749000     -2.81514000       1
H               1.05877000      3.98555000      3.17733000       1
H               0.75054900      1.51696000     -4.94811000       1
I              -5.20850000     -0.07356310     -0.62143300      53
H              -0.31876500      3.42385000     -3.96630000       1
I               2.66561000     -4.55422000     -0.24171600      53
I               2.77558000      4.48872000     -0.24171600      53
C               0.77185000      3.37940000     -4.01042000       6
N              -3.92816000     -2.08860000     -3.29973000       7
H               4.75870000     -1.35006000     -2.59622000       1
I              -1.67209000      5.38904000     -0.91340300      53
C              -3.21975000     -1.52936000     -4.48276000       6
H              -4.40803000     -2.86391000      2.50963000       1
P               1.21409000     -1.60434000      5.50017000      15
H               4.48775000     -2.86391000      2.50963000       1
N               5.10857000     -2.23468000      1.96046000       7
H               4.05106000     -2.49518000     -3.57790000       1
H               0.94879700     -5.05739000      3.17733000       1
P               5.43140000      2.63631000     -0.79290400      15
I              -0.88357300      0.78912400      6.04849000      53
H               1.09909000     -5.24003000     -3.10346000       1
H               5.11239000     -0.73241500      3.44024000       1
H              -3.84368000     -0.74771000     -4.92140000       1
N               4.96762000     -2.08860000     -3.29973000       7
I              -4.03873000      2.90631000     -3.91705000      53
H               1.14081000      3.90510000     -4.89391000       1
H               1.10853000     -6.26960000      1.09139000       1
H              -3.05745000     -2.33565000     -5.20069000       1
I               3.46636000      0.66978900      5.43953000      53
H              -4.84472000     -2.49518000     -3.57790000       1
H               5.76276000     -2.80948000      1.39669000       1
C               5.84379000     -1.32135000      2.88455000       6
I              -1.07449000      0.57095100     -6.59998000      53
H               5.54294000     -2.80749000     -2.81514000       1
H              -0.37818200     -6.57966000      1.85781000       1
I               4.85705000      2.90631000     -3.91705000      53
H              -0.42873700     -5.61909000     -3.96630000       1
H               6.48403000     -0.66804300      2.28773000       1
I              -1.06239000     -3.81243000      5.71117000      53
C               0.66187900     -5.66354000     -4.01042000       6
C               1.16820000     -6.12748000      3.18049000       6
N               0.65369000     -6.71703000      1.91466000       7
I               6.12153000      2.61148000      2.33013000      53
P              -3.20851000      2.97028000      5.54689000      15
H              -3.02305000      6.23346000      1.39669000       1
H               5.05210000     -0.74771000     -4.92140000       1
I               3.44131000     -3.78605000      4.91292000      53
H               1.03084000     -5.13784000     -4.89391000       1
P               0.99969100      7.16461000     -0.76510800      15
P              -3.57436000     -6.40662000     -0.79290400      15
C               5.67603000     -1.52936000     -4.48276000       6
H               2.24647000     -6.29583000      3.22565000       1
I              -2.88422000     -6.43146000      2.33013000      53
P               1.02318000     -1.82252000     -7.14830000      15
H              -3.24287000      6.23545000     -2.81514000       1
I              -6.12020000      4.48872000     -0.24171600      53
H               6.44426000     -1.92776000      3.56605000       1
I              -5.42943000      0.66978900      5.43953000      53
I              -6.23017000     -4.55422000     -0.24171600      53
H               0.66934600     -6.61720000      4.01921000       1
H              -6.53934000      2.74711000      3.22565000       1
I              -0.95241500      5.23051000      5.71117000      53
H               6.63013000     -1.11447000     -4.14968000       1
I               3.27544000      0.45161600     -7.20894000      53
H              -4.29806000      6.17903000      2.50963000       1
H               0.94146400      1.73513000      7.70036000       1
N              -3.67724000      6.80826000      1.96046000       7
H               0.81342100     -7.74469000      1.89604000       1
I               3.55129000      5.25689000      4.91292000      53
I               7.11372000     -3.65390000     -0.91340300      53
H              -6.68002000      1.87243000     -4.15760000       1
H               4.59772000      6.17903000      2.50963000       1
I              -1.25330000     -4.03060000     -6.93729000      53
I               0.78321300      7.75366000      2.34024000      53
I               1.56279000      6.95933000     -3.91751000      53
H               5.83833000     -2.33565000     -5.20069000       1
I               8.07789000      0.81867600     -1.35004000      53
H              -7.67728000      2.77334000      1.09139000       1
H              -2.86654000     -2.11747000      7.44777000       1
P              -8.00606000     -1.87832000     -0.76510800      15
I              -5.45447000     -3.78605000      4.91292000      53
N               1.07209000     -7.08916000     -4.10774000       7
H              -2.34155000      7.11518000      3.56605000       1
H              -7.97239000      1.29825000      1.89604000       1
H               0.70352800     -7.60311000     -3.27962000       1
P              -3.39943000      2.75211000     -7.10157000      15
P               5.32143000     -6.40662000     -0.79290400      15
I              -4.14870000     -6.13663000     -3.91705000      53
I              -0.92786500     -8.22426000     -1.35004000      53
P               5.68727000      2.97028000      5.54689000      15
H               4.16104000      6.54776000     -3.57790000       1
H               2.10579000     -7.17051000     -4.15760000       1
H              -3.65277000     -0.52953700      7.72706000       1
N              -3.81819000      6.95434000     -3.29973000       7
H              -4.25296000      7.36327000      1.29413000       1
I              -1.14333000      5.01234000     -6.93729000      53
I              -8.22254000     -1.28928000      2.34024000      53
I              -7.44296000     -2.08361000     -3.91751000      53
N              -8.13212000      2.32591000      1.91466000       7
H               5.87273000      6.23346000      1.39669000       1
I               4.74708000     -6.13663000     -3.91705000      53
C              -2.94202000      7.72159000      2.88455000       6
C              -7.61760000      2.91546000      3.18049000       6
H              -2.07474000     -0.89629800      8.49878000       1
N               5.21854000      6.80826000      1.96046000       7
H               4.64282000      7.36327000      1.29413000       1
C              -3.02884000     -1.31118000      8.16571000       6
H              -4.73474000      6.54776000     -3.57790000       1
H              -8.08228000      1.43983000     -3.27962000       1
P              -3.31849000     -6.07266000      5.54689000      15
H               5.65292000      6.23545000     -2.81514000       1
H               1.33173000      4.12328000      7.75455000       1
N               1.37298000      2.17195000      8.54073000       7
H               0.58840200      2.20757000     -8.62926000       1
N              -7.71372000      1.95378000     -4.10774000       7
I              -5.34450000      5.25689000      4.91292000      53
H              -2.30178000      8.37490000      2.28773000       1
H              -2.94748000      6.70729000     -5.20069000       1
H               0.64057700     -7.52598000     -4.94811000       1
I               7.22369000      5.38904000     -0.91340300      53
H              -4.02711000      7.69288000     -2.59622000       1
H               2.40667000      2.09060000      8.49087000       1
I               1.64373000     -1.86544000      8.73095000      53
I               6.01156000     -6.43146000      2.33013000      53
H              -7.68672000      3.80291000     -3.10346000       1
I              -5.62034000      0.45161600     -7.20894000      53
H               8.62757000      2.46328000      1.85781000       1
H              -2.15568000      7.92847000     -4.14968000       1
N               5.07760000      6.95434000     -3.29973000       7
H               1.22176000     -4.91966000      7.75455000       1
C              -3.10978000      7.51358000     -4.48276000       6
I               3.25040000     -4.00422000     -7.73555000      53
P               1.32406000      7.43859000      5.50017000      15
H              -7.83701000      3.98555000      3.17733000       1
H               5.24301000     -0.52953700      7.72706000       1
H              -8.11646000      2.42574000      4.01921000       1
P               5.49635000      2.75211000     -7.10157000      15
C               0.96276500      3.59757000      8.63804000       6
H              -0.12785000      3.64202000      8.68216000       1
H               4.86867000      7.69288000     -2.59622000       1
H               1.00441000      1.65800000      9.36885000       1
P              -7.68169000     -1.60434000      5.50017000      15
H              -8.14523000      1.51696000     -4.94811000       1
H              -9.16399000      2.46328000      1.85781000       1
C              -8.12393000      3.37940000     -4.01042000       6
H              -2.64244000     -2.14594000     -9.08241000       1
H              -6.64931000     -6.29583000      3.22565000       1
H              -3.67342000      8.31052000      3.44024000       1
I               3.79726000      8.96938000     -0.62143300      53
I               3.57731000     -9.11650000     -0.62143300      53
H               6.02924000     -2.11747000      7.44777000       1
I               3.36037000      5.03872000     -7.73555000      53
I              -9.71367000      0.81867600     -1.35004000      53
H              -7.79669000     -5.24003000     -3.10346000       1
C               1.08726000      2.69728000     -9.46798000       6
I               9.56902000     -1.28928000      2.34024000      53
P               5.57729000     -6.07266000      5.54689000      15
H              -7.94698000     -5.05739000      3.17733000       1
H              -7.75497000      3.90510000     -4.89391000       1
I              -0.70792200      9.86162000     -1.35004000      53
P               9.78550000     -1.87832000     -0.76510800      15
H               2.16553000      2.52894000     -9.42282000       1
I              -3.84782000      3.12448000      8.73141000      53
H               8.57702000      3.42385000     -3.96630000       1
H              -7.78725000     -6.26960000      1.09139000       1
I               8.01221000      0.78912400      6.04849000      53
H              -3.97430000     -0.95058800     -9.20822000       1
H               9.81917000      1.29825000      1.89604000       1
P              -3.50940000     -6.29083000     -7.10157000      15
N               9.65944000      2.32591000      1.91466000       7
C               5.86694000     -1.31118000      8.16571000       6
