200
cutoff_factor=1.20000000 nneightol=1.20000000 Lattice="28.86233000       0.00000000       0.00000000       0.00000000      28.36573000       0.00000000       0.00000000       0.00000000      26.53887000" Properties=species:S:1:pos:R:3:Z:I:1
I              -0.00227076     -1.65646000      0.08112100      53
H               2.29360000     -0.39495800      0.19912500       1
H              -2.29817000     -0.39501000      0.19914600       1
H               2.24405000      1.92085000      0.90666800       1
H              -2.24847000      1.92077000      0.90670000       1
N               3.14145000      0.19942600      0.07679880       7
N              -3.14598000      0.19942600      0.07679880       7
H               3.14147000      0.57260200     -0.90041100       1
H              -3.14596000      0.57260200     -0.90041100       1
H              -0.00226409     -2.64632000     -2.16693000       1
C               3.14148000      1.31866000      1.06542000       6
C              -3.14596000      1.31866000      1.06542000       6
I              -0.00227717      1.34607000      3.36673000      53
H               3.14144000      0.89393600      2.07152000       1
H              -3.14599000      0.89393600      2.07152000       1
P              -0.00227523     -1.89450000      3.45591000      15
H               3.98926000     -0.39501000      0.19914600       1
H              -3.99384000     -0.39495800      0.19912500       1
H               0.84058000      2.78845000     -3.21714000       1
H              -0.84514700      2.78844000     -3.21711000       1
N              -0.00228185     -3.07004000     -3.12308000       7
H              -0.00226482      3.81916000     -2.16693000       1
H               0.89481300     -1.41443000     -4.07642000       1
H              -0.89944800     -1.41447000     -4.07640000       1
H               4.03897000      1.92077000      0.90670000       1
H              -4.04339000      1.92085000      0.90666800       1
N              -0.00228258      3.39544000     -3.12308000       7
C              -0.00230793     -2.02679000     -4.19115000       6
I               3.14143000      1.59644000     -3.12348000      53
I              -3.14600000      1.59644000     -3.12348000      53
I              -0.00227149      4.80902000      0.08112100      53
I               3.14144000     -1.93754000      3.30623000      53
H               0.84058000     -3.67704000     -3.21714000       1
I              -3.14599000     -1.93754000      3.30623000      53
H              -0.84514600     -3.67704000     -3.21711000       1
H               2.24405000     -4.54463000      0.90666800       1
H              -2.24846000     -4.54471000      0.90670000       1
P              -0.00227596      4.57098000      3.45591000      15
H              -0.00231335     -2.52117000     -5.16471000       1
C              -0.00230866      4.43869000     -4.19115000       6
C               3.14148000     -5.14682000      1.06542000       6
C              -3.14596000     -5.14682000      1.06542000       6
I              -0.00227644     -5.11942000      3.36673000      53
H               4.03897000     -4.54471000      0.90670000       1
H              -4.04339000     -4.54463000      0.90666800       1
I              -0.00228344      1.12027000     -6.12835000      53
H               2.24423000      1.87219000      5.65970000       1
H              -2.24875000      1.87222000      5.65970000       1
I               3.14144000      4.52794000      3.30623000      53
I              -3.14599000      4.52794000      3.30623000      53
H               2.29360000      6.07052000      0.19912500       1
H              -2.29817000      6.07047000      0.19914600       1
H              -0.00231408      3.94431000     -5.16471000       1
I               6.28516000     -1.65646000      0.08112100      53
I              -6.28970000     -1.65646000      0.08112100      53
H               0.89481200      5.05105000     -4.07642000       1
H              -0.89944900      5.05102000     -4.07640000       1
I               3.14143000     -4.86904000     -3.12348000      53
I              -3.14600000     -4.86904000     -3.12348000      53
H               3.14144000     -5.57155000      2.07152000       1
H              -3.14599000     -5.57155000      2.07152000       1
H               3.14148000      0.34262700      5.93850000       1
H              -3.14595000      0.34262700      5.93850000       1
H               3.14147000     -5.89288000     -0.90041100       1
H              -3.14596000     -5.89288000     -0.90041100       1
I              -0.00228147     -1.89758000      6.61217000      53
H               5.38799000     -1.41447000     -4.07640000       1
H              -5.39262000     -1.41443000     -4.07642000       1
H               5.44229000      2.78844000     -3.21711000       1
H              -5.44685000      2.78845000     -3.21714000       1
C               3.14147000      1.42419000      6.09292000       6
C              -3.14597000      1.42419000      6.09292000       6
N               3.14145000     -6.26606000      0.07679880       7
N              -3.14598000     -6.26606000      0.07679880       7
H               6.28517000     -2.64632000     -2.16693000       1
H              -6.28970000     -2.64632000     -2.16693000       1
H               4.03868000      1.87222000      5.65970000       1
H              -4.04320000      1.87219000      5.65970000       1
H               2.29360000     -6.86044000      0.19912500       1
H              -2.29817000     -6.86049000      0.19914600       1
I               6.28516000      1.34607000      3.36673000      53
I              -6.28971000      1.34607000      3.36673000      53
H               3.98926000      6.07047000      0.19914600       1
H              -3.99384000      6.07052000      0.19912500       1
P               3.14144000      1.19742000     -6.45740000      15
P              -3.14600000      1.19742000     -6.45740000      15
H               5.44229000     -3.67704000     -3.21711000       1
H              -5.44685000     -3.67704000     -3.21714000       1
N               3.14145000      6.66491000      0.07679880       7
N              -3.14599000      6.66491000      0.07679880       7
P               6.28516000     -1.89450000      3.45591000      15
P              -6.28971000     -1.89450000      3.45591000      15
H               2.24424000     -4.59329000      5.65970000       1
H              -2.24875000     -4.59326000      5.65970000       1
N               6.28515000     -3.07004000     -3.12308000       7
N              -6.28972000     -3.07004000     -3.12308000       7
H               6.28517000      3.81916000     -2.16693000       1
H              -6.28970000      3.81916000     -2.16693000       1
I               3.14144000     -2.03664000     -6.74611000      53
I              -3.14600000     -2.03664000     -6.74611000      53
H               3.14147000      7.03808000     -0.90041100       1
H              -3.14596000      7.03808000     -0.90041100       1
N               6.28515000      3.39544000     -3.12308000       7
N              -6.28972000      3.39544000     -3.12308000       7
C               6.28513000     -2.02679000     -4.19115000       6
C              -6.28974000     -2.02679000     -4.19115000       6
I               6.28516000      4.80902000      0.08112100      53
I              -6.28971000      4.80902000      0.08112100      53
H               3.98926000     -6.86049000      0.19914600       1
H              -3.99384000     -6.86044000      0.19912500       1
I              -0.00228220      4.56790000      6.61217000      53
I              -0.00227003     -8.12195000      0.08112100      53
I              -0.00228271     -5.34521000     -6.12835000      53
H               3.14144000      7.35942000      2.07152000       1
H              -3.14599000      7.35942000      2.07152000       1
H               7.12801000      2.78845000     -3.21714000       1
H              -7.13258000      2.78844000     -3.21711000       1
H               4.03868000     -4.59326000      5.65970000       1
H              -4.04320000     -4.59329000      5.65970000       1
N               3.14147000      1.69381000      7.56560000       7
N              -3.14597000      1.69381000      7.56560000       7
H               7.18225000     -1.41443000     -4.07642000       1
H              -7.18688000     -1.41447000     -4.07640000       1
H               5.38799000      5.05102000     -4.07640000       1
H              -5.39262000      5.05105000     -4.07642000       1
H               2.29719000      1.30049000      8.02451000       1
H              -2.30167000      1.30052000      8.02450000       1
C               3.14148000      7.78414000      1.06542000       6
C              -3.14596000      7.78414000      1.06542000       6
P               6.28516000      4.57098000      3.45591000      15
I              -0.00227790      7.81155000      3.36673000      53
P              -6.28971000      4.57098000      3.45591000      15
C               3.14147000     -5.04129000      6.09292000       6
C              -3.14597000     -5.04129000      6.09292000       6
H               6.28512000     -2.52117000     -5.16471000       1
H              -6.28975000     -2.52117000     -5.16471000       1
H               8.58103000     -0.39495800      0.19912500       1
H              -8.58561000     -0.39501000      0.19914600       1
H               7.12801000     -3.67704000     -3.21714000       1
H              -7.13258000     -3.67704000     -3.21711000       1
I               3.14144000      4.42884000     -6.74611000      53
I              -3.14600000      4.42884000     -6.74611000      53
H               2.24405000      8.38633000      0.90666800       1
H              -2.24847000      8.38625000      0.90670000       1
C               6.28513000      4.43869000     -4.19115000       6
C              -6.28974000      4.43869000     -4.19115000       6
I               6.28516000     -5.11942000      3.36673000      53
I              -6.28971000     -5.11942000      3.36673000      53
H               8.53148000      1.92085000      0.90666800       1
H              -8.53590000      1.92077000      0.90670000       1
H               3.14145000      2.71357000      7.75884000       1
H              -3.14599000      2.71357000      7.75884000       1
I               6.28515000      1.12027000     -6.12835000      53
I              -6.28972000      1.12027000     -6.12835000      53
P               3.14144000     -5.26806000     -6.45740000      15
P              -3.14600000     -5.26806000     -6.45740000      15
H               0.89481300     -7.87992000     -4.07642000       1
H              -0.89944700     -7.87995000     -4.07640000       1
H               6.28512000      3.94431000     -5.16471000       1
H              -6.28975000      3.94431000     -5.16471000       1
P              -0.00227450     -8.35998000      3.45591000      15
H               3.98577000      1.30052000      8.02450000       1
H              -3.99024000      1.30049000      8.02451000       1
H               3.14148000     -6.12285000      5.93850000       1
H              -3.14595000     -6.12285000      5.93850000       1
H               3.14145000     -3.75191000      7.75884000       1
H              -3.14598000     -3.75191000      7.75884000       1
I               3.14143000      8.06192000     -3.12348000      53
I              -3.14600000      8.06192000     -3.12348000      53
I               6.28515000     -1.89758000      6.61217000      53
I              -6.28972000     -1.89758000      6.61217000      53
H               4.03897000      8.38625000      0.90670000       1
H              -4.04339000      8.38633000      0.90666800       1
H              -0.00226336     -9.11180000     -2.16693000       1
N               9.42888000      0.19942600      0.07679880       7
N              -9.43342000      0.19942600      0.07679880       7
C              -0.00230720     -8.49227000     -4.19115000       6
N               3.14147000     -4.77167000      7.56560000       7
N              -3.14597000     -4.77167000      7.56560000       7
H               9.42891000      0.57260200     -0.90041100       1
H              -9.43340000      0.57260200     -0.90041100       1
I               3.14144000     -8.40302000      3.30623000      53
I              -3.14599000     -8.40302000      3.30623000      53
H               3.14148000      6.80811000      5.93850000       1
H              -3.14595000      6.80811000      5.93850000       1
C               9.42891000      1.31866000      1.06542000       6
C              -9.43339000      1.31866000      1.06542000       6
H               7.18225000      5.05105000     -4.07642000       1
H              -7.18688000      5.05102000     -4.07640000       1
H               9.42888000      0.89393600      2.07152000       1
H              -9.43342000      0.89393600      2.07152000       1
H               8.53148000     -4.54463000      0.90666800       1
H              -8.53590000     -4.54471000      0.90670000       1
I              -0.00228417      7.58575000     -6.12835000      53
I              -0.00226587      1.37866000      9.67777000      53
H               2.29719000     -5.16499000      8.02451000       1
H              -2.30167000     -5.16496000      8.02450000       1
H               0.84057900      9.25393000     -3.21714000       1
H              -0.84514700      9.25393000     -3.21711000       1
P              -0.00227466     -1.86947000      9.79276000      15
