200
cutoff_factor=1.20000000 nneightol=1.20000000 Lattice="28.64880000       0.00000000       0.00000000       0.00000000      27.99052000       0.00000000       0.00000000       0.00000000      29.23395000" Properties=species:S:1:pos:R:3:Z:I:1
P               0.02467250      1.76239000     -0.03536390      15
I               1.87402000     -0.92276400      0.00093219      53
I              -2.66616000     -0.08049820      0.05608670      53
H               0.53570900     -2.00540000      1.87341000       1
H               0.47499100     -2.09108000     -2.42766000       1
H              -0.82582200     -1.81233000      2.83962000       1
N              -0.14784500     -2.50060000      2.48968000       7
I              -0.05429510      1.71349000      3.17849000      53
I               0.06961170      1.77420000     -3.18371000      53
H              -0.65096900     -3.17966000      1.87457000       1
C               0.47059500     -3.00907000     -3.01878000       6
H               3.38679000      0.59162900     -2.65019000       1
H              -3.66872000      0.64381000      2.42096000       1
I               2.70323000      3.55804000     -0.04685840      53
H              -2.69769000      1.70363000      3.25339000       1
H               0.47818200     -3.88489000     -2.36593000       1
H              -4.14224000      0.84992100     -1.84854000       1
H               3.68527000      2.05700000     -1.88766000       1
H              -1.63570000     -3.02585000     -3.24440000       1
I              -1.76025000      4.44051000      0.04908800      53
C               0.54875300     -3.20148000      3.61056000       6
I              -1.76532000     -4.55475000      0.04908800      53
N              -0.78046800     -3.03628000     -3.83309000       7
H               1.32612000     -3.03075000     -3.69754000       1
N               4.11688000      1.29437000     -2.45384000       7
H               3.29374000      1.71335000      3.30753000       1
H               1.07802000     -2.45669000      4.20764000       1
N              -3.63081000      1.24568000      3.26775000       7
H              -0.84479000     -2.22669000     -4.48590000       1
H               1.25340000     -3.91952000      3.18483000       1
H               4.84038000      0.84992100     -1.84854000       1
P              -4.47072000     -2.82070000      0.02081560      15
P               4.51190000     -2.82070000      0.02081560      15
H              -3.64122000      0.64519600      4.11833000       1
H              -3.50787000      2.54952000     -3.47162000       1
N              -4.86574000      1.29437000     -2.45384000       7
H              -0.20050300     -3.71566000      4.21505000       1
H               0.48325200      5.11037000     -2.36593000       1
H               4.32284000      2.85418000      2.37756000       1
C               4.24684000      2.24647000      3.28124000       6
H              -3.83400000      0.97435900     -4.26737000       1
H               5.31390000      0.64381000      2.42096000       1
H              -0.82878100     -3.88759000     -4.42349000       1
C              -4.27432000      1.81278000     -3.72278000       6
H              -4.65978000      2.85418000      2.37756000       1
H              -5.29735000      2.05700000     -1.88766000       1
I              -4.36532000     -2.71835000     -3.15515000      53
I               2.69816000     -5.43722000     -0.04685840      53
I              -4.42791000     -2.76032000      3.19536000      53
H               1.25847000      5.07573000      3.18483000       1
H              -0.64589900      5.81559000      1.87457000       1
C              -4.73578000      2.24647000      3.28124000       6
I               4.55471000     -2.76032000      3.19536000      53
I               4.61731000     -2.71835000     -3.15515000      53
H              -5.59583000      0.59162900     -2.65019000       1
H               3.91297000      2.27456000     -4.31247000       1
C               4.70831000      1.81278000     -3.72278000       6
I               6.31646000     -0.08049820      0.05608670      53
N               5.35181000      1.24568000      3.26775000       7
P               0.11241700      1.72759000     -6.37747000      15
P               0.02119950      1.70571000      6.40839000      15
H               4.36284000      2.87152000      4.16858000       1
I              -1.88628000     -0.77544000     -6.38579000      53
C               0.47566500      5.98619000     -3.01878000       6
H               5.14862000      0.97435900     -4.26737000       1
H              -0.19543300      5.27960000      4.21505000       1
H               5.34140000      0.64519600      4.11833000       1
H              -5.68888000      1.71335000      3.30753000       1
H              -0.82371100      5.10767000     -4.42349000       1
I               2.06325000     -0.77721100      6.46623000      53
I              -2.52297000     -0.22004800      6.36229000      53
C               0.55382400      5.79377000      3.61056000       6
H              -4.61979000      2.87152000      4.16858000       1
I               2.62486000     -0.19396900     -6.35574000      53
N              -0.14277500      6.49466000      2.48968000       7
H               5.47475000      2.54952000     -3.47162000       1
H              -1.63063000      5.96941000     -3.24440000       1
H              -5.06965000      2.27456000     -4.31247000       1
N              -0.77539800      5.95898000     -3.83309000       7
H               1.33119000      5.96451000     -3.69754000       1
I              -7.10860000     -0.92276400      0.00093219      53
I              -6.27939000      3.55804000     -0.04685840      53
P               0.01960230     -7.23286000     -0.03536390      15
H               0.54077900      6.98986000      1.87341000       1
H               6.28493000      1.70363000      3.25339000       1
H               0.48006100      6.90418000     -2.42766000       1
P              -4.46565000      6.17456000      0.02081560      15
P               4.51697000      6.17456000      0.02081560      15
I              -2.41189000      3.77779000     -6.32600000      53
H              -0.82075200      7.18292000      2.83962000       1
I               2.59392000      3.66482000      6.40645000      53
H               1.08309000      6.53857000      4.20764000       1
H               4.31777000     -6.14108000      2.37756000       1
I               0.06454140     -7.22106000     -3.18371000      53
I              -1.87756000      4.24629000      6.43649000      53
I              -0.05936540     -7.28177000      3.17849000      53
I               1.98451000      4.33495000     -6.42994000      53
H              -4.66485000     -6.14108000      2.37756000       1
H               3.68020000     -6.93826000     -1.88766000       1
H              -3.51294000     -6.44574000     -3.47162000       1
H              -0.83972000      6.76856000     -4.48590000       1
I               1.97944000     -4.66031000     -6.42994000      53
I              -1.88263000     -4.74897000      6.43649000      53
P              -4.45900000     -2.73455000     -6.38385000      15
I              -4.36024000      6.27690000     -3.15515000      53
P              -4.39507000     -2.82741000      6.41477000      15
I              -4.42284000      6.23493000      3.19536000      53
P               4.52362000     -2.73455000     -6.38385000      15
I               1.87909000      8.07249000      0.00093219      53
I              -6.28446000     -5.43722000     -0.04685840      53
I               4.55978000      6.23493000      3.19536000      53
P               4.58755000     -2.82741000      6.41477000      15
I               4.62238000      6.27690000     -3.15515000      53
H              -2.70276000     -7.29163000      3.25339000       1
I               7.22237000      4.44051000      0.04908800      53
I               7.21730000     -4.55475000      0.04908800      53
I              -2.41696000     -5.21747000     -6.32600000      53
H               7.34692000     -3.02585000     -3.24440000       1
H               4.35777000     -6.12373000      4.16858000       1
C               4.24177000     -6.74879000      3.28124000       6
H               3.28867000     -7.28191000      3.30753000       1
I               2.58885000     -5.33044000      6.40645000      53
H              -4.62486000     -6.12373000      4.16858000       1
H              -0.11736800     -1.56873000     -8.62365000       1
H              -0.59451800     -2.28044000      8.47976000       1
H               8.15680000     -1.81233000      2.83962000       1
C              -4.74085000     -6.74879000      3.28124000       6
H              -8.44691000     -2.00540000      1.87341000       1
H               3.90790000     -6.72070000     -4.31247000       1
H              -5.30242000     -6.93826000     -1.88766000       1
I              -6.35776000     -0.19396900     -6.35574000      53
H              -7.65650000     -3.03075000     -3.69754000       1
N               4.11181000     -7.70089000     -2.45384000       7
I               6.45965000     -0.22004800      6.36229000      53
H              -8.50763000     -2.09108000     -2.42766000       1
H               8.33165000     -3.17966000      1.87457000       1
P              -8.95795000      1.76239000     -0.03536390      15
H               5.46968000     -6.44574000     -3.47162000       1
H               3.65142000      0.55267000      8.36874000       1
C              -4.27939000     -7.18248000     -3.72278000       6
N              -3.63588000     -7.74958000      3.26775000       7
P               9.00729000      1.76239000     -0.03536390      15
H              -7.72922000     -3.91952000      3.18483000       1
H               0.64113000     -3.58064000      8.52487000       1
H              -7.90460000     -2.45669000      4.20764000       1
I              -2.66109000      8.91476000      0.05608670      53
H              -4.14731000     -8.14534000     -1.84854000       1
H               3.63541000      2.21356000      8.30633000       1
C               4.70323000     -7.18248000     -3.72278000       6
N              -4.87081000     -7.70089000     -2.45384000       7
H               3.38172000     -8.40363000     -2.65019000       1
H              -3.67379000     -8.35145000      2.42096000       1
I              -2.67123000     -9.07576000      0.05608670      53
H              -5.07472000     -6.72070000     -4.31247000       1
H              -3.39711000      2.09831000     -8.58459000       1
C               0.20081700     -2.74222000      9.06945000       6
I              -6.91938000     -0.77721100      6.46623000      53
H               0.86119800     -3.79506000     -8.67391000       1
N               8.83478000     -2.50060000      2.48968000       7
C              -8.51203000     -3.00907000     -3.01878000       6
N               8.20215000     -3.03628000     -3.83309000       7
H               8.13783000     -2.22669000     -4.48590000       1
I               7.09634000     -0.77544000     -6.38579000      53
H               0.96726000     -2.00548000      9.32061000       1
I              -8.91301000      1.77420000     -3.18371000      53
I               8.92833000      1.71349000      3.17849000      53
H               4.30698000      0.83933800     -8.57718000       1
H              -8.50444000     -3.88489000     -2.36593000       1
H               4.83531000     -8.14534000     -1.84854000       1
P               0.10734600     -7.26767000     -6.37747000      15
P               0.01612920     -7.28955000      6.40839000      15
C              -8.43387000     -3.20148000      3.61056000       6
I              -9.03692000      1.71349000      3.17849000      53
H              -3.17630000      1.40951000      9.09470000       1
I               9.05223000      1.77420000     -3.18371000      53
I              -6.38870000      3.66482000      6.40645000      53
C              -0.23336400     -2.19379000     -9.51099000       6
I               0.07957520      1.79468000     -9.59687000      53
H              -7.72415000      5.07573000      3.18483000       1
N              -9.13047000     -2.50060000      2.48968000       7
I               0.11488800      1.72190000      9.63708000      53
N               3.69974000      1.40398000      8.95914000       7
H              -4.67564000      0.83933800     -8.57718000       1
H              -5.69395000     -7.28191000      3.30753000       1
H              -3.83907000     -8.02090000     -4.26737000       1
I               6.57073000      3.77779000     -6.32600000      53
H               9.51833000     -2.00540000      1.87341000       1
P              -4.39000000      6.16785000      6.41477000      15
H              -5.33120000      0.55267000      8.36874000       1
H              -1.18647000     -2.72691000     -9.48471000       1
N               5.34674000     -7.74958000      3.26775000       7
H               9.45761000     -2.09108000     -2.42766000       1
P              -4.45393000      6.26071000     -6.38385000      15
H              -3.64629000     -8.35006000      4.11833000       1
H               7.35199000      5.96941000     -3.24440000       1
P               4.59262000      6.16785000      6.41477000      15
P               4.52869000      6.26071000     -6.38385000      15
H               8.15384000     -3.88759000     -4.42349000       1
H               2.84450000      1.41441000      9.54784000       1
C              -3.92638000      1.35352000     -9.18167000       6
