200
cutoff_factor=1.20000000 nneightol=1.20000000 Lattice="28.90784000       0.00000000       0.00000000       0.00000000      28.82991000       0.00000000       0.00000000       0.00000000      28.08358000" Properties=species:S:1:pos:R:3:Z:I:1
H              -0.46931500      0.49756400     -2.24581000       1
H              -0.21158500     -1.16014000     -2.06785000       1
H               1.86022000      0.07346030     -1.79925000       1
I              -2.02925000     -0.83697000      1.49237000      53
N              -0.01517500     -0.34598500     -2.66344000       7
I               2.54517000     -0.12646800      1.15184000      53
H               0.42373900      2.42020000      1.34212000       1
C               1.44907000     -0.10950000     -2.79392000       6
I              -1.25465000      2.72235000     -1.23994000      53
P               0.66243800     -2.27836000      2.59956000      15
H              -0.43260300     -0.50227400     -3.60770000       1
C               0.75485200      3.15357000      2.08069000       6
H               1.60316000      0.76102300     -3.43550000       1
H               1.90447000     -0.99659000     -3.23910000       1
P              -3.90260000      1.42141000     -0.00750510      15
H              -2.82074000     -3.05760000      0.23389900       1
I               0.60597100     -4.15451000      0.03449330      53
H               0.12041300      1.98166000      3.70698000       1
H               1.81490000      3.01530000      2.30542000       1
N              -0.02565640      2.94380000      3.33630000       7
H              -1.04261000      3.08363000      3.16603000       1
H               0.56803300      4.16833000      1.72284000       1
I              -3.90812000     -0.60502000     -2.52631000      53
H              -3.87706000     -2.71330000     -0.99378900       1
I               3.18437000      3.44265000     -1.51995000      53
N              -3.44389000     -3.50060000     -0.47022200       7
H              -3.16135000     -0.74901100      3.77314000       1
H              -2.86743000     -4.01699000     -1.16760000       1
I               0.45684300     -0.25915100      5.09925000      53
P               5.10479000      1.42141000     -0.00750510      15
H               0.28290500      3.60097000      4.07796000       1
H               3.94668000     -3.76898000      0.85281300       1
I              -3.65794000      3.24047000      2.61628000      53
P               0.59999800      4.98850000     -2.57648000      15
I               5.09927000     -0.60502000     -2.52631000      53
H               3.80467000      0.39609800      4.43281000       1
H               5.13033000     -2.71330000     -0.99378900       1
N              -3.59599000     -0.94749200      4.70119000       7
I              -1.98713000     -4.43519000     -3.59298000      53
H              -2.83715000     -1.17498000      5.35969000       1
H               3.89239000     -4.77170000     -0.63121300       1
H              -2.76037000      2.35627000     -5.04825000       1
I               3.28864000     -3.67774000      3.78515000      53
I              -1.15768000     -0.76844300     -6.06544000      53
I              -1.23445000     -4.29969000      4.34250000      53
I               0.53362000      3.27210000     -5.30870000      53
C              -4.47464000     -4.37431000      0.15861300       6
I               2.49532000     -3.89800000     -4.22740000      53
C               4.53275000     -4.37431000      0.15861300       6
H              -5.06072000     -3.76898000      0.85281300       1
H              -4.19459000     -1.79052000      4.55593000       1
P               0.63770100     -5.99736000     -2.57648000      15
H              -3.96837000     -5.18474000      0.68752900       1
I              -6.46222000     -0.12646800      1.15184000      53
H              -3.77143000      1.07729000      5.27166000       1
N               5.56350000     -3.50060000     -0.47022200       7
I               5.34946000      3.24047000      2.61628000      53
C              -4.42093000      0.20581500      5.17180000       6
H              -5.20273000      0.39609800      4.43281000       1
I               0.56826800      6.83135000      0.03449330      53
H               4.81280000     -1.79052000      4.55593000       1
H               6.18666000     -3.05760000      0.23389900       1
C               4.58646000      0.20581500      5.17180000       6
P              -3.87400000     -2.37868000     -5.21222000      15
I              -5.82303000      3.44265000     -1.51995000      53
H               4.22194000      3.47540000     -4.27313000       1
H               5.84604000     -0.74901100      3.77314000       1
H              -5.11500000     -4.77170000     -0.63121300       1
H               0.60573600     -6.81752000      1.72284000       1
H              -4.00608000      5.80111000      0.68752900       1
I               6.97814000     -0.83697000      1.49237000      53
N              -3.51921000      2.58376000     -5.70676000       7
N               5.41141000     -0.94749200      4.70119000       7
H               5.03902000     -5.18474000      0.68752900       1
H              -4.78545000      3.47540000     -4.27313000       1
H               3.85469000      6.21416000     -0.63121300       1
H              -4.11782000      1.74073000     -5.85202000       1
H              -7.14718000      0.07346030     -1.79925000       1
H               4.14517000     -0.05585230      6.13481000       1
H               0.39738500     -3.85363000     -6.32998000       1
H               6.13997000     -4.01699000     -1.16760000       1
I               3.36542000     -0.14648900     -6.62279000      53
H               5.23597000      1.07729000      5.27166000       1
I               2.38084000      3.55661000      6.18054000      53
H              -2.90513000      6.96886000     -1.16760000       1
H               1.52638000     -2.77022000      6.97244000       1
H               5.00132000      5.80111000      0.68752900       1
P               5.13340000     -2.37868000     -5.21222000      15
I              -2.02484000      6.55067000     -3.59298000      53
I              -2.10161000      3.01942000      6.81497000      53
C              -4.34415000      3.73706000     -5.23614000       6
I              -5.71875000     -3.67774000      3.78515000      53
H               4.88958000      1.74073000     -5.85202000       1
H              -3.69465000      4.60853000     -5.13628000       1
H              -3.08457000      2.78224000     -6.63480000       1
H              -4.86223000     -0.05585230      6.13481000       1
H              -7.10293000     -0.99659000     -3.23910000       1
H              -0.50938000     -4.03352000      6.80025000       1
P               0.73921400      1.25289000     -7.80838000      15
C               4.66324000      3.73706000     -5.23614000       6
P               0.52322100      1.45725000      7.83146000      15
C               4.49505000      6.61155000      0.15861300       6
C              -4.51234000      6.61155000      0.15861300       6
C              -7.55832000     -0.10950000     -2.79392000       6
I              -1.27216000      6.68616000      4.34250000      53
H              -5.15271000      6.21416000     -0.63121300       1
H              -7.19249000      3.01530000      2.30542000       1
H               3.88144000      3.92735000     -5.97514000       1
C               0.79255500     -7.83229000      2.08069000       6
H              -7.40423000      0.76102300     -3.43550000       1
H               3.90897000      7.21687000      0.85281300       1
H               6.17025000     -1.17498000      5.35969000       1
N              -3.48160000      7.48525000     -0.47022200       7
P              -3.98848000      5.07593000      5.19572000      15
I               7.75274000      2.72235000     -1.23994000      53
N               5.48818000      2.58376000     -5.70676000       7
I               3.22207000     -7.54320000     -1.51995000      53
H               6.24702000      2.35627000     -5.04825000       1
N               0.08882310     -4.51081000     -7.07165000       7
H              -2.85844000      7.92825000      0.23389900       1
H               0.32060800     -7.38488000      4.07796000       1
I              -1.21695000     -8.26350000     -1.23994000      53
H               1.85260000     -7.97055000      2.30542000       1
H              -0.92813500     -4.37097000     -7.24191000       1
C               1.37229000     -3.64075000      7.61402000       6
H              -1.00491000     -7.90222000      3.16603000       1
I               2.45762000      7.08785000     -4.22740000      53
H               0.23489300     -5.47295000     -6.70096000       1
N              -0.09195190     -3.87723000      7.74451000       7
H               1.82769000     -4.52784000      7.16885000       1
H               0.19719000      5.51290000     -6.70096000       1
H               0.46144200     -8.56566000      1.34212000       1
I              -6.51207000     -3.89800000     -4.22740000      53
I              -5.64198000     -0.14648900     -6.62279000      53
N               0.01204620     -8.04205000      3.33630000       7
H               5.31274000      4.60853000     -5.13628000       1
H              -0.54609200     -3.03368000      8.16213000       1
H              -5.12595000      3.92735000     -5.97514000       1
P              -3.95077000     -5.90992000      5.19572000      15
P               5.01892000      5.07593000      5.19572000      15
H               8.53808000      0.49756400     -2.24581000       1
I               3.25094000      7.30812000      3.78515000      53
H              -5.09842000      7.21687000      0.85281300       1
I              -3.62023000     -7.74539000      2.61628000      53
H              -3.65695000     -6.37732000     -5.13628000       1
H              -8.58365000      2.42020000      1.34212000       1
P              -8.34496000     -2.27836000      2.59956000      15
I               7.02026000     -4.43519000     -3.59298000      53
C              -8.25254000      3.15357000      2.08069000       6
P               0.62473500      8.70749000      2.59956000      15
H               7.96478000      3.08363000      3.16603000       1
H               8.79581000     -1.16014000     -2.06785000       1
H              -3.91476000      8.27255000     -0.99378900       1
I              -1.33143000     -0.80889800      9.16801000      53
H               0.68251300     -3.28627000     -8.68510000       1
N               5.52580000      7.48525000     -0.47022200       7
H               8.57479000     -0.50227400     -3.60770000       1
H               5.92282000      2.78224000     -6.63480000       1
H               6.10227000      6.96886000     -1.16760000       1
P               5.05662000     -5.90992000      5.19572000      15
I              -8.40142000     -4.15451000      0.03449330      53
I               0.57132200     -7.71376000     -5.30870000      53
N               8.99222000     -0.34598500     -2.66344000       7
C               0.86933200     -4.30104000     -8.32726000       6
N              -9.02257000     -0.34598500     -2.66344000       7
I               3.10759000     -0.08859680      8.88800000      53
H               1.92938000     -4.43931000     -8.10252000       1
H               1.78344000     -3.45779000      8.60870000       1
I              -1.95248000      2.69428000     -8.91557000      53
H              -9.21898000     -1.16014000     -2.06785000       1
I              -3.54346000     -4.21414000     -7.79167000      53
H               0.35968200      7.13222000     -6.32998000       1
H              -8.43936000      4.16833000      1.72284000       1
H              -0.28836200     -4.69139000      8.34009000       1
N               0.05112050      6.47505000     -7.07165000       7
I              -5.78532000     -7.54320000     -1.51995000      53
H               4.25965000     -7.51046000     -4.27313000       1
I              -6.62655000      3.55661000      6.18054000      53
H               0.15811600     -9.00420000      3.70698000       1
H              -0.54708300      6.95233000      6.80025000       1
H              -9.47671000      0.49756400     -2.24581000       1
I              -3.98490000     -4.13627000      7.88163000      53
H               5.09263000      8.27255000     -0.99378900       1
H               5.35045000     -6.37732000     -5.13628000       1
I               5.38716000     -7.74539000      2.61628000      53
H               1.78999000      6.45802000      7.16885000       1
H               9.43113000      2.42020000      1.34212000       1
H              -8.88698000      1.98166000      3.70698000       1
H              -0.96583800      6.61488000     -7.24191000       1
H              -4.74775000     -7.51046000     -4.27313000       1
I               7.77294000     -4.29969000      4.34250000      53
C              -4.30645000     -7.24879000     -5.23614000       6
I               7.84972000     -0.76844300     -6.06544000      53
I              -8.55055000     -0.25915100      5.09925000      53
I               2.41855000     -7.42925000      6.18054000      53
N               8.98174000      2.94380000      3.33630000       7
H               6.14895000      7.92825000      0.23389900       1
I              -5.75646000      7.30812000      3.78515000      53
H              -0.24928800      9.82571000     -2.06785000       1
H               3.91915000     -7.05851000     -5.97514000       1
