200
cutoff_factor=1.20000000 nneightol=1.20000000 Lattice="28.18886000       0.00000000       0.00000000       0.00000000      28.84196000       0.00000000       0.00000000       0.00000000      28.35575000" Properties=species:S:1:pos:R:3:Z:I:1
I               0.05435280      1.50339000     -0.79177700      53
P              -2.04529000     -0.87037400     -0.68011500      15
H               1.99934000     -0.40143900      1.24841000       1
I               0.34003100     -2.97892000     -0.76731600      53
C               2.34701000     -1.20116000      1.90645000       6
H               1.50010000     -1.77018000      2.29686000       1
I              -2.04725000     -0.84199400      2.51850000      53
H               2.42146000     -0.97147600     -2.26940000       1
H               1.13526000     -0.81171300     -3.51062000       1
H               3.03610000     -1.86028000      1.37443000       1
H              -0.69376100      2.58977000      2.80277000       1
C               2.18866000     -0.63424600     -3.28213000       6
H              -2.53281000      2.96196000      1.25652000       1
H               2.43216000      0.42455300     -3.39631000       1
H               2.44669000      0.02718100      3.61704000       1
N               3.07472000     -0.58611800      3.05568000       7
P               2.42603000      3.61168000     -0.68043800      15
H              -1.62929000      3.27736000     -2.53044000       1
I              -4.45080000      1.20367000     -0.70682700      53
N              -1.46032000      3.23345000      3.05476000       7
I              -2.24410000     -1.07169000     -3.97049000      53
H              -1.36989000      4.32779000      1.25227000       1
I               4.50079000      1.20367000     -0.70682700      53
C              -2.12005000      3.79058000      1.83635000       6
H               3.89182000     -0.04398130      2.72893000       1
H              -1.33659000     -4.64441000      1.25227000       1
H              -1.94887000      2.28790000     -3.99378000       1
H              -2.14004000      2.72526000      3.66049000       1
I               2.43671000      3.64970000      2.51711000      53
C              -1.65851000      3.27317000     -3.62204000       6
H               3.42736000     -1.31414000      3.71369000       1
I              -4.11608000     -3.26899000     -0.69562100      53
N               3.02047000     -1.41751000     -4.24370000       7
H              -0.68942200      3.56651000     -4.03192000       1
H              -1.05311000      3.98725000      3.64975000       1
H               2.80805000     -2.43259000     -4.16542000       1
I               0.85299200      0.86865900      5.51422000      53
H              -5.05977000     -0.04398130      2.72893000       1
H              -2.91562000      4.46920000      2.15254000       1
H              -2.88232000     -4.50300000      2.15254000       1
H              -2.41189000     -3.74931000     -3.73024000       1
H               4.03172000     -1.26571000     -4.05141000       1
I               4.83551000     -3.26899000     -0.69562100      53
C              -2.08675000     -5.18162000      1.83635000       6
P               2.45933000     -5.36053000     -0.68043800      15
H               2.83997000     -1.11313000     -5.21981000       1
I               0.30672800      5.99328000     -0.76731600      53
P              -1.88413000     -0.94549000      5.67671000      15
I               2.62072000      3.82187000     -3.97293000      53
H              -1.01981000     -4.98495000      3.64975000       1
H              -5.91549000     -1.86028000      1.37443000       1
I               2.47001000     -5.32250000      2.51711000      53
H              -1.59598000     -5.69485000     -2.53044000       1
N              -2.67966000      4.26629000     -4.06355000       7
H              -4.91987000     -1.26571000     -4.05141000       1
H              -3.62416000      4.03088000     -3.69999000       1
H              -2.49951000     -6.01024000      1.25652000       1
N              -5.87687000     -0.58611800      3.05568000       7
N              -1.42702000     -5.73875000      3.05476000       7
N              -2.64636000     -4.70591000     -4.06355000       7
I              -0.17987400     -3.65708000      5.69825000      53
H              -0.65611900     -5.40569000     -4.03192000       1
H              -5.52423000     -1.31414000      3.71369000       1
H              -2.44519000      5.22289000     -3.73024000       1
I              -3.62392000      1.88824000      5.60962000      53
C              -1.62521000     -5.69903000     -3.62204000       6
C              -6.60458000     -1.20116000      1.90645000       6
H              -6.53013000     -0.97147600     -2.26940000       1
P               6.90630000     -0.87037400     -0.68011500      15
H              -0.66045700     -6.38243000      2.80277000       1
I               2.65402000     -5.15033000     -3.97293000      53
H              -6.95225000     -0.40143900      1.24841000       1
I              -4.14938000      5.70322000     -0.69562100      53
H              -3.59086000     -4.94133000     -3.69999000       1
H               6.41877000      2.96196000      1.25652000       1
H              -2.75540000      4.31576000     -5.10043000       1
P               2.63733000      3.68975000      5.67234000      15
I              -0.34200100      1.88126000     -7.03534000      53
H              -6.51942000      0.42455300     -3.39631000       1
I               6.90434000     -0.84199400      2.51850000      53
H              -2.72209000     -4.65645000     -5.10043000       1
N              -5.93112000     -1.41751000     -4.24370000       7
H              -6.50490000      0.02718100      3.61704000       1
P              -1.99274000     -0.81597400     -7.14143000      15
I               4.80221000      5.70322000     -0.69562100      53
P              -6.52556000      3.61168000     -0.68043800      15
I               0.08765600     -7.46882000     -0.79177700      53
H              -2.10673000     -6.24694000      3.66049000       1
C              -6.76293000     -0.63424600     -3.28213000       6
H               5.32742000      4.03088000     -3.69999000       1
I               4.32137000     -2.58522000      5.77843000      53
I               0.69759700     -2.61749000     -7.20415000      53
H               1.46680000      7.20202000      2.29686000       1
I              -0.21317800      5.31512000      5.69825000      53
H              -6.14354000     -2.43259000     -4.16542000       1
H               6.03597000      4.46920000      2.15254000       1
H               3.00280000      7.11193000      1.37443000       1
I              -4.63022000     -2.58522000      5.77843000      53
H               6.06927000     -4.50300000      2.15254000       1
I               6.70749000     -1.07169000     -3.97049000      53
I              -6.51488000      3.64970000      2.51711000      53
H               1.90798000     -0.15072400      7.71334000       1
I               5.32767000      1.88824000      5.60962000      53
H              -7.45149000     -1.77018000      2.29686000       1
H              -1.91557000     -6.68430000     -3.99378000       1
C               6.83153000      3.79058000      1.83635000       6
H              -6.11162000     -1.11313000     -5.21981000       1
H               5.36073000     -4.94133000     -3.69999000       1
P               2.67063000     -5.28245000      5.67234000      15
H               6.81155000      2.72526000      3.66049000       1
H               2.77475000      6.53961000     -4.16542000       1
I               4.10834000      0.80939700     -7.11552000      53
P               2.40409000      3.52099000     -7.13706000      15
C               2.31370000      7.77105000      1.90645000       6
H               7.00271000      2.28790000     -3.99378000       1
P              -2.07859000      8.10183000     -0.68011500      15
I              -6.33087000      3.82187000     -3.97293000      53
H               6.53970000     -3.74931000     -3.73024000       1
H               7.32230000      3.27736000     -2.53044000       1
P              -6.49226000     -5.36053000     -0.68043800      15
H              -1.48155000      3.39259000      7.59396000       1
N               6.27193000      4.26629000     -4.06355000       7
H              -7.81633000     -0.81171300     -3.51062000       1
I              -4.84325000      0.80939700     -7.11552000      53
H               2.38816000      8.00073000     -2.26940000       1
N               7.49127000      3.23345000      3.05476000       7
I              -6.48157000     -5.32250000      2.51711000      53
I              -2.08055000      8.13021000      2.51850000      53
C               7.29307000      3.27317000     -3.62204000       6
C               6.86484000     -5.18162000      1.83635000       6
H               7.58170000      4.32779000      1.25227000       1
N               6.30523000     -4.70591000     -4.06355000       7
H               1.96603000      8.57076000      1.24841000       1
H               6.45208000     -6.01024000      1.25652000       1
H               1.10195000      8.16049000     -3.51062000       1
I              -4.41750000     -7.76853000     -0.70682700      53
N               1.98371000     -0.20019000      8.75022000       7
I              -3.77708000     -3.63706000     -7.29955000      53
H               7.61500000     -4.64441000      1.25227000       1
I              -1.66750000     -0.64461200      8.84084000      53
H              -1.51347000      2.07313000      8.64835000       1
I               4.53409000     -7.76853000     -0.70682700      53
I              -6.29756000     -5.15033000     -3.97293000      53
I              -8.89724000      1.50339000     -0.79177700      53
H               8.25783000      2.58977000      2.80277000       1
H               6.19619000      4.31576000     -5.10043000       1
P               7.06746000     -0.94549000      5.67671000      15
I              -2.27740000      7.90051000     -3.97049000      53
H               6.50640000      5.22289000     -3.73024000       1
I              -8.61156000     -2.97892000     -0.76731600      53
H               3.39406000      7.65806000      3.71369000       1
I               9.00594000      1.50339000     -0.79177700      53
N               2.98716000      7.55469000     -4.24370000       7
H               1.03921000     -0.43560300      9.11378000       1
N              -1.30105000      3.08821000      8.57007000       7
C               2.15535000      8.33796000     -3.28213000       6
P              -6.31426000      3.68975000      5.67234000      15
H               6.22950000     -4.65645000     -5.10043000       1
P               2.43739000     -5.45121000     -7.13706000      15
H              -0.28979700      3.24001000      8.76236000       1
H              -5.94879000      7.11193000      1.37443000       1
H               2.21818000      0.75641200      9.08353000       1
N               3.04142000      8.38608000      3.05568000       7
H               2.71450000     -2.17858000      8.81999000       1
H               2.46547000     -8.54765000     -3.39631000       1
H              -1.44825000     -5.57961000      7.59396000       1
H               7.89848000      3.98725000      3.64975000       1
H               2.18148000     -1.78046000     -9.15328000       1
H               3.99842000      7.70649000     -4.05141000       1
I               4.28807000      6.38698000      5.77843000      53
I               0.66429400      6.35472000     -7.20415000      53
H               7.35561000     -5.69485000     -2.53044000       1
I               5.17451000     -3.63706000     -7.29955000      53
H               2.03264000     -9.37364000      1.24841000       1
H               3.97395000     -0.89996700      8.78185000       1
H              -1.23601000      3.15234000     -9.10008000       1
I              -3.59062000     -7.08397000      5.60962000      53
H               3.26841000     -0.51846800     -9.16402000       1
C               3.00486000     -1.19331000      9.19173000       6
I               2.38597000      3.43403000      8.84328000      53
I               9.29162000     -2.97892000     -0.76731600      53
I              -4.66352000      6.38698000      5.77843000      53
I              -3.81038000      5.33514000     -7.29955000      53
I              -8.09860000      0.86865900      5.51422000      53
I               0.88629500     -8.10354000      5.51422000      53
H               2.80666000      7.85907000     -5.21981000       1
H               8.26217000      3.56651000     -4.03192000       1
H              -6.17684000      6.53961000     -4.16542000       1
N               7.52457000     -5.73875000      3.05476000       7
H               2.47999000     -8.94502000      3.61704000       1
C               7.32638000     -5.69903000     -3.62204000       6
H               6.84485000     -6.24694000      3.66049000       1
P              -6.28096000     -5.28245000      5.67234000      15
I              -0.30869800     -7.09094000     -7.03534000      53
H               2.41338000      8.99938000      3.61704000       1
P               6.95885000     -0.81597400     -7.14143000      15
P              -1.91743000      8.02671000      5.67671000      15
H              -4.95317000      7.70649000     -4.05141000       1
H               7.93178000     -4.98495000      3.64975000       1
P              -2.01199000     -9.84258000     -0.68011500      15
