200
cutoff_factor=1.20000000 nneightol=1.20000000 Lattice="28.64710000       0.00000000       0.00000000       0.00000000      28.02304000       0.00000000       0.00000000       0.00000000      29.43930000" Properties=species:S:1:pos:R:3:Z:I:1
I              -0.45073700      0.32079300      0.12526900      53
H              -1.47917000      1.78911000      1.91531000       1
P               2.19370000      2.16845000      0.00640357      15
H               1.80279000     -1.18173000      2.22454000       1
H              -1.66780000      1.38460000     -2.31014000       1
P              -2.27558000     -2.30612000     -0.01184380      15
H               1.16698000     -2.55458000     -2.20036000       1
H               2.11784000     -0.55747700     -3.23297000       1
N              -1.93575000      2.51759000      2.50860000       7
C               1.84107000     -1.72613000      3.17084000       6
I               4.03269000     -0.45542000     -0.12440300      53
H               0.84348900     -2.06932000      3.45431000       1
I               0.31321800     -4.18997000      0.18379200      53
C              -2.45409000      1.93939000     -2.82451000       6
H               3.28236000     -1.41815000     -2.43071000       1
I               2.05301000      2.11169000     -3.19929000      53
I               2.10636000      2.15724000      3.21071000      53
H              -1.20816000      3.18813000      2.80106000       1
H              -2.61363000      3.01285000      1.88893000       1
N               2.63252000     -1.45911000     -3.24379000       7
C               1.71363000     -2.62870000     -3.14249000       6
I              -2.23568000     -2.27812000     -3.19367000      53
H              -2.81567000      2.75949000     -2.20234000       1
H              -3.27585000      1.27340000     -3.09735000       1
H               2.26640000     -1.09740000      3.95640000       1
I              -2.55621000     -2.32068000      3.18413000      53
H               2.34618000     -3.53108000      2.24512000       1
I               0.37336000      4.82155000      0.18379200      53
H               1.02171000     -2.59481000     -3.98587000       1
H              -1.87228000      1.38444000      4.28833000       1
H              -3.37220000      1.20066000      3.32017000       1
C              -2.62007000      1.90410000      3.68486000       6
I              -4.90888000     -0.45542000     -0.12440300      53
N               2.71999000     -2.92000000      2.99388000       7
H              -1.09906000      3.16576000     -3.88124000       1
N              -1.87803000      2.51694000     -4.07262000       7
H              -1.50249000      1.77330000     -4.70197000       1
H               2.30982000     -3.54360000     -3.17002000       1
H               3.68366000     -2.63014000      2.73503000       1
H               3.18484000     -1.46627000     -4.12678000       1
I              -4.11634000      4.02849000      0.08473030      53
H               2.80260000     -3.46634000      3.87561000       1
H              -3.09174000      2.70029000      4.26544000       1
H              -2.59581000      3.03191000     -4.63029000       1
I               4.82523000      4.02849000      0.08473030      53
H              -5.65922000     -1.41815000     -2.43071000       1
H               2.40632000      5.48044000      2.24512000       1
I               0.10189500     -0.48882800      6.44965000      53
H              -5.25792000     -2.63014000      2.73503000       1
I              -4.17648000     -4.98303000      0.08473030      53
I              -0.44140000      0.36475400     -6.49712000      53
H               5.66573000      1.27340000     -3.09735000       1
H              -1.26830000     -5.82339000      2.80106000       1
H               5.56938000      1.20066000      3.32017000       1
H               2.36996000      5.46792000     -3.17002000       1
H              -2.67377000     -5.99867000      1.88893000       1
I               4.76509000     -4.98303000      0.08473030      53
H               1.22712000      6.45694000     -2.20036000       1
P               1.98754000      2.14431000      6.39054000      15
P               6.66599000     -2.30612000     -0.01184380      15
P              -2.21544000      6.70540000     -0.01184380      15
H               6.12591000      2.75949000     -2.20234000       1
P              -6.74787000      2.16845000      0.00640357      15
H              -1.15920000     -5.84575000     -3.88124000       1
P               2.13356000     -6.84307000      0.00640357      15
P              -2.26667000     -2.29386000     -6.41105000      15
P               2.26428000      2.23072000     -6.44801000      15
P              -2.48323000     -2.34263000      6.35359000      15
H              -2.87581000     -6.25203000     -2.20234000       1
H              -5.75674000     -1.46627000     -4.12678000       1
N              -1.99589000     -6.49393000      2.50860000       7
N              -6.30906000     -1.45911000     -3.24379000       7
H               6.32795000      3.01285000      1.88893000       1
C               1.77377000      6.38282000     -3.14249000       6
N               2.78013000      6.09152000      2.99388000       7
C               6.48748000      1.93939000     -2.82451000       6
H               2.86274000      5.54518000      3.87561000       1
N              -6.22159000     -2.92000000      2.99388000       7
I               6.38537000     -2.32068000      3.18413000      53
C               6.32150000      1.90410000      3.68486000       6
I               4.05343000     -0.43800600     -6.37344000      53
H              -7.13879000     -1.18173000      2.22454000       1
H              -6.82373000     -0.55747700     -3.23297000       1
I              -0.63393100      4.00016000      6.42816000      53
I               0.26564500     -4.24195000     -6.31252000      53
H              -1.53931000     -7.22241000      1.91531000       1
H               1.08185000      6.41671000     -3.98587000       1
H               5.84983000      2.70029000      4.26544000       1
H               7.27377000      1.38460000     -2.31014000       1
I              -2.17554000      6.73340000     -3.19367000      53
I               6.70589000     -2.27812000     -3.19367000      53
H               0.90363100      6.94220000      3.45431000       1
H              -6.59539000     -3.53108000      2.24512000       1
I              -2.49607000      6.69084000      3.18413000      53
H              -6.67517000     -1.09740000      3.95640000       1
I               2.04622000     -6.85428000      3.21071000      53
I              -6.83521000      2.15724000      3.21071000      53
I              -4.42172000      0.19621900      6.48908000      53
N               7.00582000      2.51759000      2.50860000       7
I               1.99287000     -6.89983000     -3.19929000      53
I              -6.88856000      2.11169000     -3.19929000      53
H               3.74380000      6.38138000      2.73503000       1
N              -1.93817000     -6.49458000     -4.07262000       7
H               7.46240000      1.78911000      1.91531000       1
I               4.51986000      0.19621900      6.48908000      53
I               0.32578700      4.76957000     -6.31252000      53
C              -7.10050000     -1.72613000      3.17084000       6
H              -2.65595000     -5.97960000     -4.63029000       1
C              -2.51424000     -7.07213000     -2.82451000       6
I              -4.88814000     -0.43800600     -6.37344000      53
H              -6.13897000     -3.46634000      3.87561000       1
H              -1.72795000     -7.62692000     -2.31014000       1
H              -6.63176000     -3.54360000     -3.17002000       1
C               1.90121000      7.28539000      3.17084000       6
I              -0.69407300     -5.01136000      6.42816000      53
H              -3.15188000     -6.31123000      4.26544000       1
C              -7.22795000     -2.62870000     -3.14249000       6
H               1.86293000      7.82979000      2.22454000       1
H               7.06930000      1.38444000      4.28833000       1
H               6.34576000      3.03191000     -4.63029000       1
C              -2.68021000     -7.10742000      3.68486000       6
I               3.75267000     -4.20860000      6.30447000      53
H               1.59826000     -1.54144000      8.17131000       1
H              -7.77460000     -2.55458000     -2.20036000       1
I               8.49084000      0.32079300      0.12526900      53
N               7.06355000      2.51694000     -4.07262000       7
I              -4.09218000      4.08452000     -6.35195000      53
H               3.34250000      7.59337000     -2.43071000       1
N               2.69266000      7.55241000     -3.24379000       7
H              -5.19777000      6.38138000      2.73503000       1
I              -0.51087900     -8.69073000      0.12526900      53
H              -1.56263000     -7.23822000     -4.70197000       1
I               3.81281000      4.80292000      6.30447000      53
H              -6.53525000      5.48044000      2.24512000       1
H               7.73341000      3.18813000      2.80106000       1
H               1.59562000     -1.73788000     -8.53616000       1
H               6.26781000     -5.99867000      1.88893000       1
H              -1.93242000     -7.62708000      4.28833000       1
I               4.84940000      4.08452000     -6.35195000      53
H               7.43909000      1.77330000     -4.70197000       1
H              -3.33599000     -7.73812000     -3.09735000       1
H               2.69158000     -2.80005000      8.09963000       1
H               6.06577000     -6.25203000     -2.20234000       1
H              -8.09809000     -2.06932000      3.45431000       1
I              -4.15232000     -4.92700000     -6.35195000      53
H              -6.07883000      5.54518000      3.87561000       1
H              -1.39147000      1.10701000     -8.92599000       1
H              -6.57162000      5.46792000     -3.17002000       1
H               2.32654000      7.91412000      3.95640000       1
H              -3.43234000     -7.81086000      3.32017000       1
N              -6.16145000      6.09152000      2.99388000       7
I              -5.18890000     -4.20860000      6.30447000      53
H               3.24498000      7.54525000     -4.12678000       1
H              -7.91986000     -2.59481000     -3.98587000       1
N               2.31605000     -2.05641000      8.72898000       7
H              -1.50253000      2.97190000      8.67482000       1
H               7.84251000      3.16576000     -3.88124000       1
H               2.17798000      8.45404000     -3.23297000       1
I              -0.39059500      9.33231000      0.12526900      53
I               4.78926000     -4.92700000     -6.35195000      53
P               6.45835000     -2.34263000      6.35359000      15
I              -9.39231000      0.32079300      0.12526900      53
I              -5.12876000      4.80292000      6.30447000      53
H               2.81509000     -3.05373000     -8.51327000       1
I               4.09283000      8.55610000     -0.12440300      53
P               6.72613000      6.70540000     -0.01184380      15
P              -2.42308000      6.66889000      6.35359000      15
P               6.67490000     -2.29386000     -6.41105000      15
P              -2.20653000      6.71766000     -6.41105000      15
H               3.09501000     -1.40759000      8.92036000       1
P              -6.67730000      2.23072000     -6.44801000      15
H               5.78969000     -6.31123000      4.26544000       1
P               1.92740000     -6.86721000      6.39054000      15
I              -8.62836000     -4.18997000      0.18379200      53
P               2.20414000     -6.78080000     -6.44801000      15
P              -6.80801000     -6.84307000      0.00640357      15
P              -6.95403000      2.14431000      6.39054000      15
C               2.06729000     -2.53407000     -9.11674000       6
H              -1.92767000      3.47595000     -8.84520000       1
H              -3.66565000      1.84336000      8.81573000       1
H              -5.59907000      7.59337000     -2.43071000       1
I               6.44551000      6.69084000      3.18413000      53
I              -8.56821000      4.82155000      0.18379200      53
H               6.28562000     -5.97960000     -4.63029000       1
N               6.94568000     -6.49393000      2.50860000       7
I              -4.84874000      8.55610000     -0.12440300      53
H              -2.37755000      0.89457100      9.63158000       1
C               6.42734000     -7.07213000     -2.82451000       6
H               7.67327000     -5.82339000      2.80106000       1
H               5.60558000     -7.73812000     -3.09735000       1
I               2.01853000      2.16005000      9.60793000      53
N              -1.47409000      1.65335000     -9.80772000       7
I               6.76603000      6.73340000     -3.19367000      53
I              -2.14785000     -2.28093000     -9.59089000      53
C              -7.16781000      6.38282000     -3.14249000       6
H               1.31516000     -3.23751000     -9.48143000       1
I               2.19130000      2.25267000     -9.61747000      53
H               5.50923000     -7.81086000      3.32017000       1
I               9.25479000     -4.18997000      0.18379200      53
C               6.26136000     -7.10742000      3.68486000       6
