200
cutoff_factor=1.20000000 nneightol=1.20000000 Lattice="27.89691000       0.00000000       0.00000000       0.00000000      28.11059000       0.00000000       0.00000000       0.00000000      28.12565000" Properties=species:S:1:pos:R:3:Z:I:1
I               0.34621400      1.39572000      0.58074900      53
P               1.96493000     -0.25424800     -1.70969000      15
H               0.70342400     -2.03752000      1.54203000       1
H              -2.76961000      0.75786000     -0.50068400       1
I              -0.45043700     -2.41179000     -1.69984000      53
H              -0.30366900     -1.29490000      2.82481000       1
H              -2.05484000      1.03637000     -2.12064000       1
C               0.27176600     -2.17642000      2.53519000       6
C              -2.97001000      0.80267600     -1.57266000       6
H              -2.70761000     -1.23909000     -1.85263000       1
H              -1.40700000     -3.19189000      1.78716000       1
I               3.52944000     -1.84013000      0.56964700      53
N              -3.45750000     -0.53227600     -2.02022000       7
P              -1.66032000      2.41279000      2.82726000      15
H               1.05405000     -2.38330000      3.26908000       1
N              -0.65389700     -3.34488000      2.48359000       7
I              -3.59739000     -0.15325200      2.23052000      53
I               0.44913700      1.53889000     -3.95826000      53
H               2.84495000      1.28455000      2.91508000       1
H              -3.74124000      1.54443000     -1.78784000       1
H               1.05877000      4.36783000     -0.66564400       1
H              -0.72704600      4.51120000     -0.76193900       1
H              -4.32102000     -0.79718300     -1.52748000       1
H              -0.16002500     -4.21024000      2.18229000       1
H              -3.62984000     -0.50400500     -3.05018000       1
H               4.23501000      2.05984000      1.06028000       1
H               0.25979100      3.86951000     -2.89799000       1
H               2.77839000      3.06940000      2.73879000       1
I               4.27624000      2.03000000     -1.55097000      53
H              -1.12819000     -3.50966000      3.39556000       1
C               3.40836000      2.21650000      3.00170000       6
C               0.22520000      4.93696000     -1.08347000       6
I              -0.17294500      0.71669900      5.09419000      53
I              -3.34882000      4.07117000      0.65053900      53
N               4.55652000      2.16499000      2.04662000       7
N               0.29876500      4.85861000     -2.57134000       7
I               3.45482000     -1.86199000     -4.02659000      53
I              -3.64663000     -4.40961000      0.64670500      53
H               0.14619100     -2.85971000     -5.01102000       1
H               5.19467000      1.36850000      2.25132000       1
P              -1.69059000     -5.38065000     -1.76136000      15
H               3.97189000     -4.36872000     -0.79125100       1
H               3.80498000      2.33045000      4.01328000       1
I               0.16458400      4.93939000      3.46602000      53
H               0.29543500      5.98557000     -0.79125100       1
H               1.19970000      5.25544000     -2.91498000       1
H              -0.47647700      5.37920000     -3.01668000       1
H               5.12326000      3.02607000      2.09153000       1
I               0.32763700     -6.28312000      0.65053900      53
H              -5.76367000      1.36850000      2.25132000       1
H               2.49490000      1.65447000     -5.62873000       1
I              -3.26208000      4.04182000     -3.93657000      53
I              -3.49421000     -0.25076800     -5.55827000      53
H              -2.42339000      0.09131350      6.10931000       1
H               2.94941000     -5.84309000     -0.76193900       1
I               4.07317000     -1.12231000      5.08772000      53
H               3.19998000     -4.97508000     -3.01668000       1
H              -0.88040200     -2.12075000     -6.28550000       1
P              -5.40998000     -2.81519000      2.79147000      15
C              -0.25043300     -2.97366000     -6.02260000       6
C               3.90166000     -5.41733000     -1.08347000       6
P               5.54836000     -2.81519000      2.79147000      15
H               6.63732000     -0.79718300     -1.52748000       1
P              -1.78689000      2.34894000     -6.23283000      15
H              -5.83508000      3.02607000      2.09153000       1
I              -3.17395000     -3.62524000      5.06603000      53
I               3.63525000      5.94468000      0.64670500      53
N              -6.40182000      2.16499000      2.04662000       7
I              -3.83174000     -4.47346000     -3.93010000      53
H              -3.36330000     -1.29462000      6.12631000       1
H              -6.72333000      2.05984000      1.06028000       1
I              -3.84473000      3.32817000      4.99770000      53
I              -6.68209000      2.03000000     -1.55097000      53
N               3.97522000     -5.49568000     -2.57134000       7
N              -3.32433000     -0.30551800      6.45296000       7
H              -4.09957000      0.21507300      6.00761000       1
H              -0.81384400     -3.90561000     -6.10922000       1
H               1.46447000     -2.16408000     -6.93276000       1
N               2.96919000      1.81925000     -6.54070000       7
I               0.41438000     -6.31247000     -3.93657000      53
I               3.84104000     -5.41490000      3.46602000      53
P              -5.36704000      4.97364000     -1.76136000      15
P               1.96820000     -0.19049400      7.26294000      15
H              -3.83648000      6.14405000      2.18229000       1
H               0.02894650      4.68615000      5.97411000       1
H               7.21710000      1.54443000     -1.78784000       1
H               4.87616000     -5.09884000     -2.91498000       1
N               0.89772600     -3.02517000     -6.97767000       7
H               4.73523000     -5.98646000     -0.66564400       1
I              -7.42890000     -1.84013000      0.56964700      53
P               5.59129000      4.97364000     -1.76136000      15
I               7.36095000     -0.15325200      2.23052000      53
H               3.46307000      0.95389300     -6.84200000       1
N               7.50084000     -0.53227600     -2.02022000       7
H               2.21609000      1.97224000     -7.23713000       1
I               3.45015000      5.88083000     -3.93010000      53
H               4.67714000      2.78083000     -5.75522000       1
H              -2.15862000     -7.32821000      2.09153000       1
H               1.53588000     -3.82165000     -6.77297000       1
H               7.32849000     -0.50400500     -3.05018000       1
H               3.31942000      3.86923000     -6.19949000       1
H               3.93625000     -6.48477000     -2.89799000       1
I               0.65315300     -3.13413000      7.47332000      53
C               3.89486000      2.98771000     -6.48911000       6
C               7.98832000      0.80267600     -1.57266000       6
H               8.18873000      0.75786000     -0.50068400       1
H               0.95118400      3.95107000      7.17167000       1
P               1.87190000      7.53910000      2.79147000      15
H              -6.98645000     -4.36872000     -0.79125100       1
I              -0.02353840      0.75452000     -8.37759000      53
N               0.20129200      4.65788000      7.00407000       7
C              -7.54998000      2.21650000      3.00170000       6
I               0.02570130      5.01088000     -6.79378000      53
H              -6.08218000     -5.09884000     -2.91498000       1
I               3.20835000      2.77836000      7.32446000      53
H              -7.15336000      2.33045000      4.01328000       1
I              -0.14702200      8.51416000      0.56964700      53
H               8.25073000     -1.23909000     -1.85263000       1
I               7.31171000     -4.40961000      0.64670500      53
H               0.57622100     -3.13032000     -7.96402000       1
N              -4.33035000      7.00940000      2.48359000       7
I              -0.16827500     -7.02612000      4.99770000      53
P              -5.31911000     -2.77736000     -6.19704000      15
I              -6.88517000     -1.12231000      5.08772000      53
C              -3.39789000     -0.22716900      7.94082000       6
I               7.60952000      4.07117000      0.65053900      53
H              -6.22311000     -5.98646000     -0.66564400       1
P               2.01614000     -7.94149000      2.82726000      15
H              -0.66223000      4.39297000      7.49682000       1
H              -8.11339000      1.28455000      2.91508000       1
I              -7.50352000     -1.86199000     -4.02659000      53
H              -2.56432000     -0.79629900      8.35865000       1
P               5.63923000     -2.77736000     -6.19704000      15
H               3.59401000     -3.61970000      7.23645000       1
N              -2.72536000     -8.18930000      2.04662000       7
H              -3.04687000     -8.29445000      1.06028000       1
H              -3.32766000      0.82144100      8.23304000       1
H              -6.28120000      2.78083000     -5.75522000       1
C              -7.05668000     -5.41733000     -1.08347000       6
H              -5.08346000      7.16239000      1.78716000       1
H              -2.97303000      8.31677000      1.54203000       1
I              -3.00564000     -8.32429000     -1.55097000      53
H              -0.06478500     -8.80986000     -1.78784000       1
H              -4.50349000     -7.28488000      2.73879000       1
H              -2.62241000      7.97099000      3.26908000       1
H              -4.80465000      6.84463000      3.39556000       1
H               3.70540000     -5.66814000      5.97411000       1
I              -4.12689000      7.94250000     -1.69984000      53
H               6.85877000      0.21507300      6.00761000       1
H              -8.17995000      3.06940000      2.73879000       1
P              -8.99341000     -0.25424800     -1.70969000      15
H               4.32651000      3.12661000     -7.48226000       1
H               8.90350000      1.03637000     -2.12064000       1
C              -3.40469000      8.17787000      2.53519000       6
N              -6.98312000     -5.49568000     -2.57134000       7
P              -1.65816000     -5.41838000      7.31460000      15
I               7.12660000     -4.47346000     -3.93010000      53
I               7.11361000      3.32817000      4.99770000      53
I               7.46413000     -0.25076800     -5.55827000      53
I               3.95073000     -1.11899000     -8.37376000      53
H              -4.35014000     -0.65292900      8.26236000       1
I               4.10793000      6.72905000      5.06603000      53
I              -0.22164100      8.49230000     -4.02659000      53
I               3.70216000     -5.34341000     -6.79378000      53
H               1.60395000      6.22653000      6.90365000       1
H               5.87488000      7.16239000      1.78716000       1
I              -7.32309000      5.94468000      0.64670500      53
H              -2.08721000     -8.98579000      2.25132000       1
C              -3.87352000     -8.13779000      3.00170000       6
I               7.69626000      4.04182000     -3.93657000      53
C               0.68877600      5.99283000      7.45163000       6
I              -7.11730000     -5.41490000      3.46602000      53
H              -3.47690000     -8.02384000      4.01328000       1
H               5.28041000     -4.12776000      6.90365000       1
H              -2.14058000      6.53263000     -6.77297000       1
H               0.90685100     -9.59643000     -0.50068400       1
H               7.12186000      6.14405000      2.18229000       1
C               4.36523000     -4.36145000      7.45163000       6
H              -3.53027000      7.49458000     -5.01102000       1
H               1.62162000     -9.31792000     -2.12064000       1
H              -7.75836000     -4.97508000     -3.01668000       1
I               0.01216150      0.78054600      9.67100000      53
C               0.70644200     -9.55161000     -1.57266000       6
H              -3.96246000     -6.48506000     -6.19949000       1
H               6.15369000      6.84463000      3.39556000       1
N               3.87775000     -5.69641000      7.00407000       7
I              -3.31258000     -3.79443000     -8.44355000      53
I               4.02267000     -8.95856000      0.58074900      53
H               7.59504000     -1.29462000      6.12631000       1
H              -5.67793000     -4.12776000      6.90365000       1
I              -3.80581000      3.32400000     -8.45465000      53
H              -2.60474000     -7.57346000     -5.75522000       1
H              -0.08245110      6.73459000      7.23645000       1
H              -8.00893000     -5.84309000     -0.76193900       1
H              -4.49030000      6.44868000     -6.10922000       1
N               6.62799000      7.00940000      2.48359000       7
I               7.78438000     -3.62524000      5.06603000      53
P               1.96277000      7.57693000     -6.19704000      15
H              -7.02209000     -6.48477000     -2.89799000       1
N               7.63401000     -0.30551800      6.45296000       7
