200
cutoff_factor=1.20000000 nneightol=1.20000000 Lattice="28.12890000       0.00000000       0.00000000       0.00000000      28.55213000       0.00000000       0.00000000       0.00000000      28.96147000" Properties=species:S:1:pos:R:3:Z:I:1
P              -1.45603000     -0.12163700      0.00329404      15
I               1.04046000      1.91846000      0.46451400      53
I               0.52555800     -2.60516000      0.38075200      53
I              -0.84923000     -0.06501260     -3.20951000      53
H               2.25605000     -0.66362400     -2.38408000       1
H               2.40487000      1.09952000     -2.08111000       1
H               2.60808000      0.99739800      2.24307000       1
H               1.57685000     -1.01539000      3.05232000       1
C               2.88995000      0.21784900     -2.50420000       6
I              -2.18423000      0.12869200      3.16588000      53
H               3.08486000     -1.36634000      2.14458000       1
H              -1.21600000     -3.30832000     -2.16573000       1
C               2.66541000     -0.92430600      3.05105000       6
H              -1.79069000      3.09268000      2.24746000       1
I              -3.37925000      2.49090000     -0.47961700      53
N               3.01815000      0.52189400      3.07638000       7
H               3.86335000      0.05939220     -2.03721000       1
I              -3.87717000     -2.13321000     -0.44459000      53
H              -1.81792000      3.48457000     -2.22810000       1
H              -0.20619300      3.58639000      2.93169000       1
H               2.61105000      0.98119600      3.91707000       1
H              -0.35893000      3.79805000     -3.04623000       1
C              -1.20926000      3.92095000      2.65758000       6
H              -1.08467000     -4.41104000      1.93879000       1
H               2.20767000      0.67497900     -4.43404000       1
N               3.10366000      0.45699800     -3.96075000       7
C              -1.63197000     -3.75579000     -3.07091000       6
H               4.05362000      0.63721600      3.06953000       1
N              -1.39085000      3.93938000     -3.06499000       7
H               3.08954000     -1.39872000      3.93868000       1
H              -1.15930000      4.73986000      1.93879000       1
H              -1.18156000     -3.30807000     -3.95948000       1
H              -4.94365000      0.05939220     -2.03721000       1
I               4.92983000     -2.13321000     -0.44459000      53
P               2.91719000      4.53830000     -0.05342650      15
H              -2.71764000     -3.63696000     -3.09173000       1
P               2.99182000     -4.61259000     -0.05342650      15
H              -1.79394000      3.47350000     -3.90277000       1
H               3.52780000     -0.37482500     -4.42691000       1
H              -4.75338000      0.63721600      3.06953000       1
H               3.73896000      1.25875000     -4.11942000       1
I               2.21736000      4.27710000     -3.19564000      53
C              -1.13463000     -5.22994000      2.65758000       6
I               5.42775000      2.49090000     -0.47961700      53
H              -1.27222000     -3.97392000      4.33966000       1
H              -0.28429900     -5.35285000     -3.04623000       1
N              -1.89448000      4.41550000      3.88338000       7
N              -1.31622000     -5.21151000     -3.06499000       7
H              -2.02141000      3.65975000      4.58018000       1
I               1.08313000      1.83535000      5.83842000      53
H              -5.72214000     -1.36634000      2.14458000       1
I               2.29199000     -4.87380000     -3.19564000      53
H              -0.13156200     -5.56451000      2.93169000       1
H              -1.74329000     -5.66633000     -2.22810000       1
H              -2.77580000     -4.39922000      3.63849000       1
H              -1.29063000      5.84258000     -2.16573000       1
N              -1.81984000     -4.73540000      3.88338000       7
I               0.33426700     -2.70107000      5.81546000      53
C              -5.91704000      0.21784900     -2.50420000       6
C              -1.70660000      5.39510000     -3.07091000       6
P              -1.48202000     -0.11286100      6.26487000      15
P              -1.44770000     -0.10126100     -6.34614000      15
I               3.47600000      4.57230000      3.17537000      53
I               0.45092700      6.54574000      0.38075200      53
N              -5.78884000      0.52189400      3.07638000       7
I               3.55063000     -4.57860000      3.17537000      53
H              -2.85043000      4.75168000      3.63849000       1
H              -5.06804000      1.25875000     -4.11942000       1
H              -6.19891000      0.99739800      2.24307000       1
H              -1.71606000     -6.05822000      2.24746000       1
H              -6.40212000      1.09952000     -2.08111000       1
H              -1.34685000      5.17698000      4.33966000       1
H              -5.27920000     -0.37482500     -4.42691000       1
H              -2.79227000      5.51394000     -3.09173000       1
C              -6.14158000     -0.92430600      3.05105000       6
N              -5.70333000      0.45699800     -3.96075000       7
H              -6.55095000     -0.66362400     -2.38408000       1
H              -5.71746000     -1.39872000      3.93868000       1
H              -1.71931000     -5.67740000     -3.90277000       1
I               1.11744000      1.84695000     -6.77259000      53
H              -1.25620000      5.84283000     -3.95948000       1
I              -3.30482000      2.60781000     -5.84755000      53
I               0.36858400     -2.68947000     -6.79555000      53
I               1.11509000     -7.23244000      0.46451400      53
I               6.62276000      0.12869200      3.16588000      53
P               7.35097000     -0.12163700      0.00329404      15
I              -4.01798000     -1.99819000     -5.86874000      53
H              -6.19595000      0.98119600      3.91707000       1
H              -1.94678000     -5.49115000      4.58018000       1
P              -5.81517000     -4.61259000     -0.05342650      15
P              -5.88980000      4.53830000     -0.05342650      15
I              -3.30462000     -6.66000000     -0.47961700      53
I              -5.25636000     -4.57860000      3.17537000      53
I              -5.33100000      4.57230000      3.17537000      53
H               6.08935000     -3.63696000     -3.09173000       1
I               4.78902000     -1.99819000     -5.86874000      53
H              -7.23014000     -1.01539000      3.05232000       1
I              -3.33914000      2.59621000      6.76346000      53
H              -6.59933000      0.67497900     -4.43404000       1
H               7.01631000      3.09268000      2.24746000       1
I              -7.76653000      1.91846000      0.46451400      53
I              -3.95180000      7.01769000     -0.44459000      53
I              -4.05230000     -2.00979000      6.74227000      53
H               6.98908000      3.48457000     -2.22810000       1
P               2.83043000      4.59505000     -6.29113000      15
P               2.79611000      4.58345000      6.31988000      15
P               2.90506000     -4.55585000     -6.29113000      15
H               6.03119000     -4.39922000      3.63849000       1
P               2.87074000     -4.56745000      6.31988000      15
I               5.50217000      2.60781000     -5.84755000      53
H               5.95656000      4.75168000      3.63849000       1
I              -6.58963000      4.27710000     -3.19564000      53
H               2.17335000      0.66337900      8.17697000       1
I               4.75470000     -2.00979000      6.74227000      53
I               4.85520000      7.01769000     -0.44459000      53
H               7.59100000     -3.30832000     -2.16573000       1
I               7.95776000     -0.06501260     -3.20951000      53
H               3.01023000      7.78456000      2.14458000       1
I               5.50238000     -6.66000000     -0.47961700      53
C               7.17503000     -3.75579000     -3.07091000       6
H               2.47950000     -8.05138000     -2.08111000       1
I               0.25963600      6.44983000      5.81546000      53
I              -8.28144000     -2.60516000      0.38075200      53
H               6.01472000      5.51394000     -3.09173000       1
I              -6.51500000     -4.87380000     -3.19564000      53
H               7.01306000      3.47350000     -3.90277000       1
H               1.50222000      8.13551000      3.05232000       1
H               2.68271000     -8.15350000      2.24307000       1
H               3.49348000     -0.38642400      8.18410000       1
N               7.41614000      3.93938000     -3.06499000       7
C               7.59774000      3.92095000      2.65758000       6
H               6.78559000      3.65975000      4.58018000       1
H              -1.98709000      3.67135000     -8.03083000       1
N               6.91252000      4.41550000      3.88338000       7
I               5.46786000      2.59621000      6.76346000      53
H               2.18142000      8.48728000     -2.38408000       1
H               7.72232000     -4.41104000      1.93879000       1
H               2.64537000      0.99279500     -8.69395000       1
C               2.59078000      8.22659000      3.05105000       6
P              -1.53066000      9.02926000      0.00329404      15
N               3.06935000      0.44539800      8.65026000       7
H               3.01490000      7.75218000      3.93868000       1
H               7.64769000      4.73986000      1.93879000       1
H               7.62543000     -3.30807000     -3.95948000       1
H              -1.23790000     -3.96232000     -8.27136000       1
N               6.98715000     -4.73540000      3.88338000       7
H               3.12385000     -1.38712000     -8.67233000       1
H               7.06371000     -5.66633000     -2.22810000       1
H              -1.21588000     -3.31967000      8.65153000       1
H               3.70464000      1.24715000      8.49159000       1
I              -3.23019000     -6.54309000     -5.84755000      53
P              -1.38140000     -9.27254000      0.00329404      15
I               0.29395300      6.46142000     -6.79555000      53
I               1.15776000     -7.31555000      5.83842000      53
C               7.10039000      5.39510000     -3.07091000       6
I              -0.88354700     -0.07661240      9.40151000      53
H               2.68568000     -8.16970000      3.91707000       1
H              -1.82825000      3.46190000      8.70824000       1
H               7.53478000     -3.97392000      4.33966000       1
H               7.09094000     -6.05822000      2.24746000       1
N               7.49077000     -5.21151000     -3.06499000       7
P               7.32497000     -0.11286100      6.26487000      15
C               7.67237000     -5.22994000      2.65758000       6
N               3.09278000     -8.62901000      3.07638000       7
I              -0.92386100      9.08589000     -3.20951000      53
H               3.81359000     -7.89215000     -4.11942000       1
I              -2.14992000      0.14029100     -9.44513000      53
I               9.33255000     -2.60516000      0.38075200      53
P               7.35929000     -0.10126100     -6.34614000      15
C               2.96458000     -8.93305000     -2.50420000       6
H               1.61117000     -1.00379000     -9.55869000       1
H               8.44806000      3.79805000     -3.04623000       1
P              -5.90193000     -4.55585000     -6.29113000      15
H               7.51636000      5.84258000     -2.16573000       1
H              -5.31352000     -0.38642400      8.18410000       1
H               8.60080000      3.58639000      2.93169000       1
I              -0.77459900     -9.21591000     -3.20951000      53
I              -2.10960000     -9.02221000      3.16588000      53
P              -5.93625000     -4.56745000      6.31988000      15
P              -5.97657000      4.59505000     -6.29113000      15
H               2.28230000     -8.47592000     -4.43404000       1
H              -1.31253000      5.18858000     -8.27136000       1
P              -6.01088000      4.58345000      6.31988000      15
I              -7.72387000      1.83535000      5.83842000      53
H               7.08769000     -5.67740000     -3.90277000       1
H              -1.91246000     -5.47955000     -8.03083000       1
H               6.86022000     -5.49115000      4.58018000       1
H              -5.79677000      7.78456000      2.14458000       1
H               4.12825000     -8.51368000      3.06953000       1
N              -1.86016000      4.42710000     -8.72763000       7
I              -3.26451000     -6.55469000      6.76346000      53
C               2.69973000     -0.91270600     -9.55996000       6
H              -5.10236000      1.24715000      8.49159000       1
N               3.05247000      0.53349400     -9.53463000       7
I               1.19207000     -7.30395000     -6.77259000      53
I               9.84746000      1.91846000      0.46451400      53
I              -2.25886000      9.27959000      3.16588000      53
H               7.46014000      5.17698000      4.33966000       1
N               3.17829000     -8.69390000     -3.96075000       7
N              -1.78553000     -4.72380000     -8.72763000       7
