200
cutoff_factor=1.20000000 nneightol=1.20000000 Lattice="28.83245000       0.00000000       0.00000000       0.00000000      29.03429000       0.00000000       0.00000000       0.00000000      28.83824000" Properties=species:S:1:pos:R:3:Z:I:1
I               0.56606700      1.49914000      0.96017000      53
H              -1.50705000      1.57056000     -1.06647000       1
H              -1.54645000     -1.41586000      1.46348000       1
I               1.40621000     -2.07905000     -1.63063000      53
H               0.48134900     -1.47336000      2.81187000       1
P               3.21842000      0.01859730      0.01966740      15
N              -1.80511000      2.20719000     -1.83228000       7
C              -1.51377000     -2.00891000      2.37958000       6
H               0.03118010      2.05277000     -2.85753000       1
I              -3.06340000     -1.47461000     -1.09630000      53
N              -0.45445400     -1.44226000      3.26274000       7
H              -0.64874000     -0.45132100      3.51039000       1
H              -1.23665000      0.89453900     -3.38243000       1
C              -1.03141000      1.92247000     -3.07501000       6
H              -1.64180000      3.17916000     -1.50196000       1
H              -1.25934000     -3.04721000      2.15516000       1
H              -2.82401000      2.07565000     -1.99284000       1
H              -2.46945000     -1.95426000      2.90580000       1
I               3.09356000     -1.99234000      2.54408000      53
P              -1.21929000     -3.57881000     -2.61165000      15
H              -0.37071300     -1.95939000      4.16387000       1
P              -1.14555000      3.61906000      2.62812000      15
I              -3.83873000      2.10763000      1.58063000      53
I               3.49244000      1.86535000     -2.65561000      53
H              -1.35080000      2.62454000     -3.84827000       1
H               2.27853000     -1.54549000     -4.02982000       1
H               3.27757000     -0.22657500     -4.14476000       1
I              -1.03322000      1.63151000      5.16273000      53
N               2.85991000     -0.99963300     -4.70076000       7
I              -1.40509000      5.43725000     -0.04180770      53
H               3.26973000      4.55203000     -0.91191500       1
H               3.58134000     -4.26661000      1.13057000       1
P              -5.68754000      0.01859730      0.01966740      15
I               5.06724000      2.10763000      1.58063000      53
I              -1.41519000     -5.53740000     -0.04180770      53
H               1.94473000     -5.38340000     -0.26906800       1
I              -1.07355000     -1.80970000     -5.36163000      53
H               3.26181000     -4.66051000     -1.25029000       1
H               3.47589000      0.80020700      4.62866000       1
H               2.24752000     -0.54714300     -5.41028000       1
H               1.95482000      5.59125000     -0.26906800       1
I               5.84257000     -1.47461000     -1.09630000      53
C               3.00603000     -5.43412000     -0.52268900       6
H               2.28786000      2.89407000      5.11407000       1
I              -5.41353000      1.86535000     -2.65561000      53
C               3.01612000      5.54053000     -0.52268900       6
H               3.59661000      5.06152000      1.43934000       1
I               1.51639000      5.01277000      3.74402000      53
N               3.80229000     -5.19618000      0.72020300       7
I               0.67958400      5.16666000     -4.06381000      53
I              -5.81241000     -1.99234000      2.54408000      53
H              -4.08434000     -5.24030000      0.52121200       1
H              -4.35997000      2.23886000      4.52669000       1
H              -4.35782000     -2.24601000     -4.54219000       1
C               3.95688000      1.60365000      5.19102000       6
H               6.08196000      2.07565000     -1.99284000       1
H               4.54600000      2.23886000      4.52669000       1
H               4.54814000     -2.24601000     -4.54219000       1
C               3.91655000     -1.83757000     -5.33333000       6
H              -5.32463000     -4.26661000      1.13057000       1
I               0.70982600     -2.36678000      6.46055000      53
N               2.90025000      2.44158000      5.82360000       7
N               3.81238000      5.77846000      0.72020300       7
H              -5.62839000     -0.22657500     -4.14476000       1
H              -4.07424000      5.73435000      0.52121200       1
H               3.58652000     -5.91313000      1.43934000       1
I               1.47605000      1.57155000     -6.78033000      53
I               0.66948800     -5.80799000     -4.06381000      53
H               4.82163000     -5.24030000      0.52121200       1
H               2.31887000      1.89572000      6.49453000       1
H              -5.43008000      0.80020700      4.62866000       1
I               1.50630000     -5.96188000      3.74402000      53
H               3.27191000      6.31414000     -1.25029000       1
H               3.25964000     -6.42262000     -0.91191500       1
P               3.31632000      3.79944000     -5.24082000      15
P               3.34656000     -3.73400000      5.28354000      15
I              -2.99412000     -5.23335000      4.10305000      53
H              -5.63623000      4.55203000     -0.91191500       1
H               3.43555000     -2.64101000     -5.89570000       1
N              -5.10368000     -5.19618000      0.72020300       7
H               6.43651000     -1.95426000      2.90580000       1
C              -4.94908000      1.60365000      5.19102000       6
I              -3.76422000     -5.05800000     -3.82365000      53
H              -5.64415000     -4.66051000     -1.25029000       1
I              -3.02436000      2.30008000     -6.42130000      53
H              -4.31748000      1.19521000      5.98217000       1
H              -5.30935000      5.06152000      1.43934000       1
H               4.83173000      5.73435000      0.52121200       1
C              -4.98942000     -1.83757000     -5.33333000       6
H              -4.40031000     -1.20235000     -5.99766000       1
H               4.50566000     -1.20235000     -5.99766000       1
H               4.58848000      1.19521000      5.98217000       1
H               7.35952000     -1.41586000      1.46348000       1
H               7.39892000      1.57056000     -1.06647000       1
N               7.10086000      2.20719000     -1.83228000       7
I              -2.98403000      5.74130000      4.10305000      53
H               3.59144000      6.70803000      1.13057000       1
N              -6.04605000     -0.99963300     -4.70076000       7
N              -5.09358000      5.77846000      0.72020300       7
I              -3.72388000     -1.61679000      6.70071000      53
H               3.31791000      3.21464000      6.37960000       1
P              -1.15564000     -7.35559000      2.62812000      15
H              -6.62744000     -1.54549000     -4.02982000       1
P              -1.20919000      7.39584000     -2.61165000      15
I              -7.49975000     -2.07905000     -1.63063000      53
I              -3.75412000      5.91664000     -3.82365000      53
P              -1.18588000      0.17784300     -7.89624000      15
P              -1.17895000     -0.13759500      7.91270000      15
C               7.39219000     -2.00891000      2.37958000       6
C              -5.89994000     -5.43412000     -0.52268900       6
H              -0.68907900     -3.89254000     -7.01396000       1
H               7.26416000      3.17916000     -1.50196000       1
H              -5.31945000     -5.91313000      1.43934000       1
C              -5.88984000      5.54053000     -0.52268900       6
H              -1.65190000     -7.79549000     -1.50196000       1
I               5.14175000     -5.05800000     -3.82365000      53
H              -1.24925000      7.92744000      2.15516000       1
H              -0.41105100     -5.40060000     -6.36048000       1
H              -1.32056000     -4.90889000      6.67608000       1
H               7.66932000      0.89453900     -3.38243000       1
H              -1.19631000      4.33575000      7.14193000       1
H              -5.47042000     -2.64101000     -5.89570000       1
H              -0.40095500      5.57404000     -6.36048000       1
H               7.64662000     -3.04721000      2.15516000       1
I              -8.33990000      1.49914000      0.96017000      53
P              -5.55941000     -3.73400000      5.28354000      15
P              -5.58965000      3.79944000     -5.24082000      15
H              -5.63406000      6.31414000     -1.25029000       1
H              -6.65845000     -0.54714300     -5.41028000       1
H              -5.64633000     -6.42262000     -0.91191500       1
I               5.18209000     -1.61679000      6.70071000      53
H              -5.31453000      6.70803000      1.13057000       1
C               7.87456000      1.92247000     -3.07501000       6
N              -6.00571000      2.44158000      5.82360000       7
I               5.15184000      5.91664000     -3.82365000      53
N              -0.49479200     -4.88348000     -7.26161000       7
H              -6.96124000     -5.38340000     -0.26906800       1
H              -6.61811000      2.89407000      5.11407000       1
P               7.68668000     -3.57881000     -2.61165000      15
H               7.55516000      2.62454000     -3.84827000       1
I               5.91184000     -5.23335000      4.10305000      53
H              -6.95114000      5.59125000     -0.26906800       1
P               7.76042000      3.61906000      2.62812000      15
H               8.25723000     -0.45132100      3.51039000       1
H              -8.42462000     -1.47336000      2.81187000       1
I               5.88160000      2.30008000     -6.42130000      53
H              -5.58805000      3.21464000      6.37960000       1
I               1.44655000      1.36216000      8.89372000      53
H              -1.31047000      6.06575000      6.67608000       1
N              -1.81521000     -8.76746000     -1.83228000       7
I               1.41631000      8.89560000     -1.63063000      53
H               0.44101100     -4.91457000     -7.71248000       1
N               8.45151000     -1.44226000      3.26274000       7
I               5.92194000      5.74130000      4.10305000      53
C              -0.99107000      5.36369000      7.44935000       6
I               7.50088000      5.43725000     -0.04180770      53
H              -1.36090000     -8.35011000     -3.84827000       1
I               7.49078000     -5.53740000     -0.04180770      53
H               0.02108410     -8.92187000     -2.85753000       1
C              -1.00117000     -5.61096000      7.44935000       6
C              -1.50368000      8.96574000      2.37958000       6
H               0.06142230     -5.48066000      7.66683000       1
H               0.07151820      5.49399000      7.66683000       1
H              -6.58710000      1.89572000      6.49453000       1
P               3.30622000     -7.17521000     -5.24082000      15
N              -0.48469600      6.09117000     -7.26161000       7
I               0.55597200     -9.47551000      0.96017000      53
H              -8.87479000      2.05277000     -2.85753000       1
H              -2.83410000     -8.89900000     -1.99284000       1
I               7.87275000      1.63151000      5.16273000      53
P               3.35666000      7.24065000      5.28354000      15
H              -1.28959000      4.48623000     -8.36920000       1
H              -1.51714000     -9.40409000     -1.06647000       1
H               8.93715000      2.05277000     -2.85753000       1
C              -1.04150000     -9.05218000     -3.07501000       6
I               9.47203000      1.49914000      0.96017000      53
I               7.83241000     -1.80970000     -5.36163000      53
H              -2.50979000     -5.39548000     -7.61856000       1
I              -7.38957000      5.01277000      3.74402000      53
H               8.53525000     -1.95939000      4.16387000       1
H              -2.49970000      5.57917000     -7.61856000       1
I               0.52572900     -1.94207000     -9.56418000      53
H              -2.45936000      9.02038000      2.90580000       1
H              -1.53635000      9.55878000      1.46348000       1
I              -3.84883000     -8.86702000      1.58063000      53
H               0.45110700      6.06008000     -7.71248000       1
H              -1.20641000     -6.63889000      7.14193000       1
H               2.27776000     -8.08058000      5.11407000       1
I               3.10365000      8.98231000      2.54408000      53
I              -3.87907000     -1.33359000     -8.94373000      53
H               3.55628000      1.62030000     -9.08502000       1
H               9.38732000     -1.47336000      2.81187000       1
H               3.30215000     -1.21929000      9.27406000       1
H               0.49144500      9.50129000      2.81187000       1
C              -1.55411000     -5.45013000     -8.14477000       6
H              -0.36061700      9.01526000      4.16387000       1
C              -1.54401000      5.52452000     -8.14477000       6
H              -0.67898300      7.08211000     -7.01396000       1
N              -9.36042000     -1.44226000      3.26274000       7
I              -3.05330000      9.50004000     -1.09630000      53
