200
cutoff_factor=1.20000000 nneightol=1.20000000 Lattice="29.27972000       0.00000000       0.00000000       0.00000000      28.11226000       0.00000000       0.00000000       0.00000000      28.97105000" Properties=species:S:1:pos:R:3:Z:I:1
I               0.86674200     -0.24883100     -0.44149100      53
H              -0.44229900      0.58991600      2.52224000       1
H              -0.62840700      0.88220600     -2.49712000       1
H              -1.84473000      1.23772000      1.61048000       1
C              -1.21704000      1.35940000      2.49615000       6
P              -1.08759000     -2.80193000     -0.81246900      15
H               0.05061980      2.79411000      1.58936000       1
H               2.56633000     -1.51259000      1.33788000       1
N              -0.55370500      2.69655000      2.42575000       7
N              -0.76672300      1.63025000     -3.20118000       7
I              -3.55296000     -0.80044500     -1.15020000      53
H              -1.31636000      2.39074000     -2.74653000       1
P               3.45854000      1.76317000     -0.79359400      15
H               0.18582100      1.96873000     -3.45254000       1
H              -1.82417000      1.32152000      3.40355000       1
I              -1.67199000     -2.90096000      2.34821000      53
N               3.22414000     -2.29694000      1.50550000       7
H               0.04235040      2.86852000      3.26322000       1
H               2.81736000     -3.14113000      1.04945000       1
H              -1.24534000      3.47141000      2.40064000       1
I               1.45428000      4.25942000     -0.29166900      53
H               4.11152000     -2.05236000      1.02690000       1
C              -1.46337000      1.11463000     -4.41561000       6
I               3.89322000      1.54404000      2.35375000      53
H              -2.45280000      0.75656700     -4.12208000       1
I              -0.54471100     -2.79345000     -3.96890000      53
I              -2.94945000      3.70361000     -1.23526000      53
H              -0.87001700      0.29859300     -4.83372000       1
I               1.41709000     -4.79671000     -0.29166900      53
H               2.47929000     -2.70192000      3.43513000       1
I               2.70500000      1.94528000     -3.94485000      53
C               3.44570000     -2.50886000      2.96573000       6
I               0.92271800     -0.35034700      5.18345000      53
H              -4.78076000     -2.05236000      1.02690000       1
H               3.89589000     -1.60419000      3.37965000       1
H               3.62936000     -3.04315000     -2.70434000       1
I               5.33933000     -0.80044500     -1.15020000      53
H              -1.54882000      1.93014000     -5.13611000       1
I              -4.99906000      1.54404000      2.35375000      53
P              -5.43375000      1.76317000     -0.79359400      15
H               1.88404000     -3.26520000     -4.39760000       1
H               3.80294000     -1.81188000     -3.99841000       1
C               3.86101000     -2.87600000     -3.75863000       6
H               4.11376000     -3.36324000      3.09612000       1
H              -1.28252000     -5.58472000      2.40064000       1
H              -4.99639000     -1.60419000      3.37965000       1
I              -2.98663000     -5.35252000     -1.23526000      53
N              -5.66815000     -2.29694000      1.50550000       7
P              -1.11040000     -2.80383000      5.55907000      15
P              -1.05041000      6.25419000     -0.81246900      15
H               0.01343620     -6.26201000      1.58936000       1
N               2.85584000     -3.60026000     -4.58027000       7
H              -4.04050000     -3.26863000     -3.99874000       1
H              -4.77852000     -3.36324000      3.09612000       1
H              -6.32596000     -1.51259000      1.33788000       1
H               2.85455000      5.91500000      1.04945000       1
H              -5.26292000     -3.04315000     -2.70434000       1
C              -5.44658000     -2.50886000      2.96573000       6
P               3.40448000      1.66328000      5.51831000      15
I               1.35637000      4.15604000      5.09212000      53
H              -5.08935000     -1.81188000     -3.99841000       1
I              -1.63480000      6.15517000      2.34821000      53
N              -0.59088900     -6.35958000      2.42575000       7
H               2.91198000      4.43488000     -4.37311000       1
C              -5.03128000     -2.87600000     -3.75863000       6
H              -6.07492000     -3.14113000      1.04945000       1
H               2.87479000     -4.62125000     -4.37311000       1
H               0.00516672     -6.18761000      3.26322000       1
I              -3.55483000     -0.81082500      6.01129000      53
H               4.85179000     -3.26863000     -3.99874000       1
I               5.94284000      3.70361000     -1.23526000      53
I               1.31919000     -4.90009000      5.09212000      53
H               3.05591000     -3.49305000     -5.58802000       1
H               7.04756000      1.23772000      1.61048000       1
H              -1.35355000     -6.66539000     -2.74653000       1
I              -0.50752700      6.26267000     -3.96890000      53
H               1.92122000      5.79093000     -4.39760000       1
H               3.66655000      6.01298000     -2.70434000       1
I               0.76438200     -0.42874700     -7.53428000      53
I              -6.18728000      1.94528000     -3.94485000      53
H               2.51647000      6.35421000      3.43513000       1
N               3.26132000      6.75918000      1.50550000       7
I              -3.09793000      3.78735000      5.90875000      53
H               6.43948000      0.75656700     -4.12208000       1
N               2.89302000      5.45586000     -4.58027000       7
H               4.15095000      5.69289000      3.09612000       1
I              -3.71316000     -0.88922500     -6.70644000      53
H              -6.41300000     -2.70192000      3.43513000       1
P              -1.26874000     -2.88223000     -7.15865000      15
H               0.14863700     -7.08740000     -3.45254000       1
H              -0.71168100      0.37699300      7.88400000       1
H               7.06812000      1.32152000      3.40355000       1
P              -5.48780000      1.66328000      5.51831000      15
H              -1.39049000      2.00854000      7.58161000       1
C               3.48289000      6.54727000      2.96573000       6
H              -4.74134000      5.69289000      3.09612000       1
I              -8.02554000     -0.24883100     -0.44149100      53
P               3.24615000      1.58488000     -7.19941000      15
I               5.90565000     -5.35252000     -1.23526000      53
I               5.33746000     -0.81082500      6.01129000      53
H               2.60351000      7.54354000      1.33788000       1
H              -4.00332000      5.78750000     -3.99874000       1
P               3.42135000     -7.29296000     -0.79359400      15
N              -0.80390600     -7.42588000     -3.20118000       7
I               7.22030000     -2.90096000      2.34821000      53
C               7.67525000      1.35940000      2.49615000       6
C              -1.25422000     -7.69673000      2.49615000       6
H              -1.88191000     -7.81841000      1.61048000       1
H               4.14871000      7.00377000      1.02690000       1
C               3.89819000      6.18012000     -3.75863000       6
P               7.80470000     -2.80193000     -0.81246900      15
N              -6.03645000     -3.60026000     -4.58027000       7
H               7.57592000      2.39074000     -2.74653000       1
I              -3.25627000      3.70895000     -6.80897000      53
H              -5.22574000      6.01298000     -2.70434000       1
P              -1.07322000      6.25230000      5.55907000      15
H               3.09309000      5.56308000     -5.58802000       1
C              -1.30504000      1.19303000      8.30211000       6
I              -3.13512000     -5.26878000      5.90875000      53
H              -6.03774000      5.91500000      1.04945000       1
I               5.17913000     -0.88922500     -6.70644000      53
H              -4.74358000      7.00377000      1.02690000       1
H               3.21424000     -3.41465000      7.12970000       1
I               2.66782000     -7.11085000     -3.94485000      53
H               4.88897000      5.78750000     -3.99874000       1
H              -0.66559100     -8.17392000     -2.49712000       1
I              -7.43801000      4.25942000     -0.29166900      53
H              -5.98031000      4.43488000     -4.37311000       1
H              -1.86135000     -7.73461000      3.40355000       1
H               8.26388000      0.88220600     -2.49712000       1
C               7.42891000      1.11463000     -4.41561000       6
I               1.19804000      4.07764000     -7.62560000      53
H               7.64695000      3.47141000      2.40064000       1
H              -6.01749000     -4.62125000     -4.37311000       1
I               3.85604000     -7.51209000      2.35375000      53
C              -4.99410000      6.18012000     -3.75863000       6
H              -5.83638000     -3.49305000     -5.58802000       1
H               8.44999000      0.58991600      2.52224000       1
H              -0.47948300     -8.46621000      2.52224000       1
I               0.90392500      8.80730000     -0.44149100      53
N               8.12556000      1.63025000     -3.20118000       7
I              -7.47519000     -4.79671000     -0.29166900      53
H              -7.00825000     -3.26520000     -4.39760000       1
N              -5.63096000      6.75918000      1.50550000       7
H              -1.58601000     -7.12599000     -5.13611000       1
H              -2.29447000      0.83496700      8.59565000       1
C              -5.40940000      6.54727000      2.96573000       6
I              -3.51578000      8.25568000     -1.15020000      53
H               3.93308000      7.45194000      3.37965000       1
N               8.33858000      2.69655000      2.42575000       7
I               5.79435000      3.78735000      5.90875000      53
H               3.84012000      7.24425000     -3.99841000       1
H               2.04238000     -3.18680000      8.32013000       1
P              -5.47093000     -7.29296000     -0.79359400      15
H               7.34346000      1.93014000     -5.13611000       1
I              -0.38637500     -2.71506000      8.74883000      53
I               1.16086000     -4.97849000     -7.62560000      53
C              -1.50056000     -7.94150000     -4.41561000       6
I              -3.29345000     -5.34718000     -6.80897000      53
P              -5.64614000      1.58488000     -7.19941000      15
N              -5.99926000      5.45586000     -4.58027000       7
I              -5.03625000     -7.51209000      2.35375000      53
I               0.82955800     -9.30496000     -0.44149100      53
N               3.01417000     -3.52187000      8.13745000       7
H               8.02227000      0.29859300     -4.83372000       1
H              -8.84167000      2.79411000      1.58936000       1
I               2.86334000      2.02368000      8.77288000      53
H               0.34415600      2.04713000      9.26519000       1
H               8.94291000      2.79411000      1.58936000       1
I              -7.96957000     -0.35034700      5.18345000      53
P              -1.23156000      6.17390000     -7.15865000      15
H              -4.95921000      7.45194000      3.37965000       1
H              -8.70647000      1.96873000     -3.45254000       1
I               5.63602000      3.70895000     -6.80897000      53
H              -2.48999000     -8.29956000     -4.12208000       1
H              -1.98250000      1.24312000     -9.31418000       1
H              -6.37582000      6.35421000      3.43513000       1
H               3.25143000      5.64148000      7.12970000       1
I               8.34758000     -2.79345000     -3.96890000      53
H              -9.33459000      0.58991600      2.52224000       1
N              -0.60838700      1.70864000      9.51654000       7
H              -5.05217000      7.24425000     -3.99841000       1
H               3.96127000     -1.73348000      8.71931000       1
H              -5.67804000     -3.41465000      7.12970000       1
H               7.60976000     -5.58472000      2.40064000       1
I               9.75903000     -0.24883100     -0.44149100      53
H              -5.79920000      5.56308000     -5.58802000       1
I               5.75717000     -5.26878000      5.90875000      53
I               7.25748000      6.15517000      2.34821000      53
P               3.36730000     -7.39285000      5.51831000      15
H              -0.11598500      2.79012000     -9.45451000       1
H              -8.84994000      2.86852000      3.26322000       1
H              -9.52069000      0.88220600     -2.49712000       1
H               9.07811000      1.96873000     -3.45254000       1
H              -6.28878000      7.54354000      1.33788000       1
I               5.37651000      8.25568000     -1.15020000      53
H               8.93464000      2.86852000      3.26322000       1
H               2.32095000     -2.78032000     -9.28259000       1
P               7.78188000     -2.80383000      5.55907000      15
H               3.07031000      4.51328000      8.34461000       1
