200
cutoff_factor=1.20000000 nneightol=1.20000000 Lattice="28.96770000       0.00000000       0.00000000       0.00000000      28.34755000       0.00000000       0.00000000       0.00000000      28.20003000" Properties=species:S:1:pos:R:3:Z:I:1
H              -0.54422100     -0.66997800     -1.24507000       1
I               1.28517000      1.18965000      0.35729200      53
C              -0.88218400     -1.59496000     -1.71660000       6
H              -0.69215000     -2.69347000      0.03519720       1
N              -0.33823600     -2.74744000     -0.94159600       7
H               0.69970800     -2.72246000     -0.93403000       1
H              -0.62226600      0.32940300      2.91617000       1
H              -1.97294000     -1.65284000     -1.70285000       1
H              -0.50977600     -1.66023000     -2.74110000       1
P              -0.47209600      3.22229000     -1.33401000      15
I              -3.09056000      1.64753000     -0.40488600      53
I              -2.32257000     -2.05997000      2.15780000      53
C              -0.27854400      0.90944000      3.77508000       6
H               0.78479400      1.13976000      3.67750000       1
H              -0.66561200     -3.63828000     -1.36727000       1
P               3.87642000     -0.38122000      1.23435000      15
H              -0.88855100      2.73614000      2.93730000       1
I              -0.36304700      1.43457000     -3.98862000      53
I               2.05644000     -2.62107000      2.82611000      53
I               3.54132000     -2.34681000     -1.28069000      53
N              -1.03789000      2.19355000      3.81118000       7
H               2.62059000      0.82335100     -3.75377000       1
H              -0.46953800      0.36910800      4.70464000       1
H              -2.05794000      2.01541000      3.91927000       1
P              -4.91150000     -0.38122000      1.23435000      15
I              -0.81558000      4.99088000      1.37558000      53
H              -0.70310800      2.78939000      4.59508000       1
H              -4.14306000      1.92881000     -2.99727000       1
N               3.43934000      0.89238800     -4.37881000       7
H               3.73199000      3.82481000      1.83740000       1
P              -0.60334200     -4.09956000      3.90204000      15
I               2.15320000      4.74145000     -2.30055000      53
H               4.64487000      1.92881000     -2.99727000       1
H               2.45890000      5.06781000      1.60266000       1
I              -5.24660000     -2.34681000     -1.28069000      53
I               4.17068000      1.43891000      3.93684000      53
H               3.98790000      0.00680272     -4.36660000       1
I               5.69736000      1.64753000     -0.40488600      53
I               1.21782000     -2.74260000     -5.13492000      53
H               4.11613000     -4.61917000      0.45929400       1
I              -4.61725000      1.43891000      3.93684000      53
C               4.30590000      2.05223000     -4.02538000       6
H               3.07851000      0.99809200     -5.35365000       1
I              -0.79582700     -6.07716000      1.37558000      53
C               3.52595000      4.89468000      1.75941000       6
H               3.71680000      2.96549000     -4.12713000       1
H              -3.63117000      2.06987000     -4.71017000       1
H               3.93664000      4.96557000     -0.28734700       1
H              -3.49666000      5.27268000      0.67675000       1
C              -4.48203000      2.05223000     -4.02538000       6
I              -3.18419000     -1.82596000     -5.26667000      53
H              -4.80002000      0.00680272     -4.36660000       1
H               3.05983000     -2.63833000      5.10116000       1
I              -2.23237000     -5.48117000     -2.71826000      53
H              -4.67179000     -4.61917000      0.45929400       1
P              -0.58466900     -0.46313600     -6.55277000      15
H              -5.05593000      3.82481000      1.83740000       1
I              -2.25212000      5.58687000     -2.71826000      53
H               2.47865000     -6.00022000      1.60266000       1
H              -3.47691000     -5.79536000      0.67675000       1
I              -0.38172000     -2.20185000      6.46619000      53
P               3.83259000     -4.13156000     -3.91262000      15
N               4.26951000      5.43408000      0.58226400       7
H              -4.85128000      4.96557000     -0.28734700       1
N              -5.34858000      0.89238800     -4.37881000       7
H              -3.64984000     -1.56656000      5.74464000       1
H              -0.45086500      4.00553000     -5.75017000       1
I               2.17295000     -6.32659000     -2.30055000      53
N              -4.51842000      5.43408000      0.58226400       7
N               4.28926000     -5.63395000      0.58226400       7
I               6.46535000     -2.05997000      2.15780000      53
H               3.86902000      5.41798000      2.65422000       1
H              -5.07112000      2.96549000     -4.12713000       1
I               1.17940000      4.68902000      5.31989000      53
H               6.81498000     -1.65284000     -1.70285000       1
N              -4.49866000     -5.63395000      0.58226400       7
H              -6.16733000      0.82335100     -3.75377000       1
H               3.95639000     -6.10246000     -0.28734700       1
H               5.15675000      2.06987000     -4.71017000       1
C               3.54570000     -6.17336000      1.75941000       6
H               3.88878000     -5.65005000      2.65422000       1
H               3.69813000     -0.67093800      6.32768000       1
C              -5.26198000      4.89468000      1.75941000       6
N               3.42067000     -2.74404000      6.07600000       7
H               5.29126000      5.27268000      0.67675000       1
H              -0.66468100     -4.64222000     -5.85973000       1
P              -4.95534000     -4.13156000     -3.91262000      15
H              -0.68536500      7.42976000     -1.36727000       1
I              -7.50276000      1.18965000      0.35729200      53
H               4.09638000      6.44886000      0.45929400       1
H               2.60192000     -2.81307000      6.70104000       1
I              -6.73149000     -2.62107000      2.82611000      53
H              -4.91890000      5.41798000      2.65422000       1
H              -4.83153000     -6.10246000     -0.28734700       1
H               5.13808000     -1.56656000      5.74464000       1
C               4.28722000     -1.58419000      6.42943000       6
H               5.31101000     -5.79536000      0.67675000       1
H              -5.70941000      0.99809200     -5.35365000       1
I               5.60373000     -1.82596000     -5.26667000      53
H              -4.89914000     -5.65005000      2.65422000       1
I               2.07511000      1.01535000     -7.62870000      53
P              -0.45234200     -7.84575000     -1.33401000      15
H              -4.69154000      6.44886000      0.45929400       1
C              -4.50070000     -1.58419000      6.42943000       6
P              -0.62309600      6.96848000      3.90204000      15
H               6.72999000      2.01541000      3.91927000       1
C              -0.25987100      4.54586000     -6.67973000       6
H              -5.72809000     -2.63833000      5.10116000       1
H               3.96922000     -3.62962000      6.08821000       1
H              -5.08979000     -0.67093800      6.32768000       1
I              -3.20286000     -5.46239000      5.18814000      53
C               7.90574000     -1.59496000     -1.71660000       6
P               3.79416000      3.30005000      6.54219000      15
H              -6.32902000      5.06781000      1.60266000       1
C              -5.24222000     -6.17336000      1.75941000       6
I              -3.22262000      5.60565000      5.18814000      53
I              -2.27080000      1.95045000      7.73655000      53
H               0.80346800      4.77619000     -6.77731000       1
H               3.75174000     -7.24323000      1.83740000       1
H               8.24370000     -0.66997800     -1.24507000       1
N              -0.35798900      8.32060000     -0.94159600       7
I               1.19915000     -6.37902000      5.31989000      53
H              -0.71190400      8.37457000      0.03519720       1
H               0.67995500      8.34558000     -0.93403000       1
I              -6.63472000      4.74145000     -2.30055000      53
I               2.13453000      1.10502000      8.15426000      53
N              -0.99946300     -5.23806000     -6.64363000       7
H               8.09577000     -2.69347000      0.03519720       1
H              -0.60359200      3.96583000     -7.53864000       1
N              -5.36725000     -2.74404000      6.07600000       7
H              -4.81870000     -3.62962000      6.08821000       1
H              -8.08821000     -2.72246000     -0.93403000       1
H               8.16566000      0.32940300      2.91617000       1
H              -4.16173000     -1.70761000      7.45754000       1
H              -0.68443500      6.42581000     -5.85973000       1
H              -2.01951000     -5.41620000     -6.53554000       1
I              -2.30390000      1.57646000     -8.29701000      53
P               3.81283000      6.93647000     -3.91262000      15
H              -6.30927000     -6.00022000      1.60266000       1
H               7.89937000      2.73614000      2.93730000       1
P              -4.99376000      3.30005000      6.54219000      15
H               8.27815000     -1.66023000     -2.74110000       1
H              -0.86879700     -8.33190000      2.93730000       1
H              -2.03926000      5.65184000     -6.53554000       1
H              -8.00313000      1.13976000      3.67750000       1
N              -1.01922000      5.82998000     -6.64363000       7
H              -0.85012400     -4.69548000     -7.51751000       1
N               7.75003000      2.19355000      3.81118000       7
N               8.44969000     -2.74744000     -0.94159600       7
H               4.62619000     -1.70761000      7.45754000       1
H               3.90745000     -2.01363000     -7.80059000       1
I               6.55555000     -5.48117000     -2.71826000      53
H               8.12231000     -3.63828000     -1.36727000       1
H              -5.03618000     -7.24323000      1.83740000       1
P               8.31583000      3.22229000     -1.33401000      15
I               6.53580000      5.58687000     -2.71826000      53
H              -0.43111100     -7.06250000     -5.75017000       1
I               2.03668000      8.44696000      2.82611000      53
P              -0.49076900     -0.41413400      9.12080000      15
I               4.18935000      5.07534000     -6.51797000      53
H               0.82322100     -6.29185000     -6.77731000       1
C              -0.24011800     -6.52217000     -6.67973000       6
C               8.50938000      0.90944000      3.77508000       6
H              -0.52844900     -5.29665000      7.71371000       1
I               5.58506000     -5.46239000      5.18814000      53
P              -4.97509000      6.93647000     -3.91262000      15
H              -4.88047000     -2.01363000     -7.80059000       1
I               8.42487000      1.43457000     -3.98862000      53
I              -0.77715300     -2.44073000     -9.07923000      53
I              -6.61497000     -6.32659000     -2.30055000      53
H              -9.33214000     -0.66997800     -1.24507000       1
I               5.56530000      5.60565000      5.18814000      53
I              -4.59857000      5.07534000     -6.51797000      53
I               3.52157000      8.72122000     -1.28069000      53
H              -0.68335400     -8.27865000      4.59508000       1
H               2.49733000     -2.36380000     -8.85215000       1
I               7.97234000      4.99088000      1.37558000      53
H              -6.18600000     -2.81307000      6.70104000       1
I              -7.57010000     -2.74260000     -5.13492000      53
I              -2.34232000      9.00807000      2.15780000      53
H               8.31838000      0.36910800      4.70464000       1
N              -9.12616000     -2.74744000     -0.94159600       7
H              -0.54820300      5.77139000      7.71371000       1
C              -0.90193700      9.47307000     -1.71660000       6
H               8.08481000      2.78939000      4.59508000       1
N              -1.01814000     -8.87448000      3.81118000       7
C               3.56437000     -2.53693000     -8.69540000       6
H              -1.99270000      9.41519000     -1.70285000       1
I               4.20910000     -5.99270000     -6.51797000      53
H              -0.52952900      9.40781000     -2.74110000       1
H               3.73655000     -8.10255000     -4.12713000       1
H              -9.29770000     -1.66023000     -2.74110000       1
I               1.19807000      8.32544000     -5.13492000      53
H              -9.48007000     -2.69347000      0.03519720       1
H              -9.41019000      0.32940300      2.91617000       1
C              -9.06647000      0.90944000      3.77508000       6
H              -0.70403900      3.79333000      9.08754000       1
H              -0.86987700      6.37256000     -7.51751000       1
P              -9.26002000      3.22229000     -1.33401000      15
H               9.48763000     -2.72246000     -0.93403000       1
