200
cutoff_factor=1.20000000 nneightol=1.20000000 Lattice="28.83244000       0.00000000       0.00000000       0.00000000      28.11783000       0.00000000       0.00000000       0.00000000      27.15713000" Properties=species:S:1:pos:R:3:Z:I:1
I               0.23259300      1.25141000     -1.55919000      53
H              -0.09169980     -2.01237000     -0.88766600       1
P               0.67632900      1.74212000      1.57014000      15
I              -1.21039000     -0.92747100      2.05986000      53
H              -2.48763000      0.82552600     -0.97983200       1
C               0.06436700     -2.70356000     -1.71904000       6
H              -0.26952900     -2.25397000     -2.65702000       1
H               2.05864000     -2.12988000     -2.01477000       1
N              -3.35348000      1.35804000     -0.77018800       7
I               3.32773000     -0.13890100      1.63729000      53
H              -3.07262000      2.16781000     -0.17677400       1
N               1.52020000     -2.99057000     -1.82648000       7
H              -0.46115300     -3.64397000     -1.53786000       1
H               1.87757000     -3.43478000     -0.95007400       1
H              -3.99031000      0.76338000     -0.20044700       1
H               0.51484300     -1.67457000      3.89029000       1
I              -1.95380000      3.63448000      1.57254000      53
I              -3.60451000     -2.40406000     -1.58538000      53
H               1.72364000     -3.65577000     -2.60251000       1
C              -4.00498000      1.79363000     -2.03550000       6
H              -3.30300000      2.42211000     -2.58821000       1
P              -3.78195000     -2.85507000      1.58099000      15
H               4.03783000      2.35740000     -1.78161000       1
H               4.95298000      0.76338000     -0.20044700       1
P               0.53729800      1.70355000     -4.70575000      15
H              -4.26138000      0.90487300     -2.61670000       1
I               2.53600000      4.30702000      1.04805000      53
I               0.91007200      1.94928000      4.76110000      53
N               0.99155800     -2.19443000      4.65972000       7
H               1.95059000     -2.46948000      4.36611000       1
H               4.68191000      0.90487300     -2.61670000       1
H              -2.63339000      1.99329000      4.37112000       1
I               2.58801000     -4.75189000      1.04805000      53
I               2.59208000     -0.77904400     -4.80216000      53
I              -1.90356000     -0.31093800     -5.28590000      53
C               4.93831000      1.79363000     -2.03550000       6
H              -0.51316200      5.41495000     -1.53786000       1
H              -4.90546000      2.35740000     -1.78161000       1
H               0.12227300     -4.03499000      4.11777000       1
N               5.58981000      1.35804000     -0.77018800       7
H               1.08906000     -1.57855000      5.48889000       1
I              -5.61556000     -0.13890100      1.63729000      53
H               4.38752000      0.56023100      3.98926000       1
I              -1.90179000     -5.42444000      1.57254000      53
H               1.82556000      5.62413000     -0.95007400       1
C               0.19635100     -3.40415000      5.00651000       6
I               5.33878000     -2.40406000     -1.58538000      53
H              -4.55577000      0.56023100      3.98926000       1
P               5.16134000     -2.85507000      1.58099000      15
H              -0.79614500     -3.08338000      5.33120000       1
H               1.67163000      5.40315000     -2.60251000       1
H               5.87067000      2.16781000     -0.17677400       1
C              -3.63054000      2.29818000      4.69695000       6
H              -4.10707000      2.92220000      3.93765000       1
H               3.52398000      1.32974000      5.19277000       1
I               2.90264000      3.86627000     -4.25454000      53
I              -1.51190000      4.14838000     -4.75107000      53
H               0.07026350      5.02393000      4.11777000       1
N               1.46819000      6.06834000     -1.82648000       7
H               6.45566000      0.82552600     -0.97983200       1
C               0.01235790      6.35535000     -1.71904000       6
H               5.64029000      2.42211000     -2.58821000       1
N              -4.45862000      1.07568000      4.88685000       7
N               4.48467000      1.07568000      4.88685000       7
P              -3.83212000     -2.82502000     -4.75930000      15
H               4.83623000      2.92220000      3.93765000       1
H              -4.00860000      0.46117700      5.59697000       1
I              -1.45989000     -4.91054000     -4.75107000      53
H               0.70909100     -3.93582000      5.81141000       1
H              -0.14370900      7.04654000     -0.88766600       1
I              -4.40018000     -3.07630000      4.70167000      53
I               4.54311000     -3.07630000      4.70167000      53
H              -3.57594000      2.82956000      5.64955000       1
H              -0.32153900      6.80495000     -2.65702000       1
I               2.95465000     -5.19265000     -4.25454000      53
H               1.32893000     -1.55667000     -7.16209000       1
C               5.31275000      2.29818000      4.69695000       6
P              -3.83396000      6.20384000      1.58099000      15
H               4.93469000      0.46117700      5.59697000       1
H              -6.88465000     -2.12988000     -2.01477000       1
H               2.00663000      6.92903000     -2.01477000       1
P               0.72833900     -7.31680000      1.57014000      15
H              -3.02061000     -6.89111000     -0.17677400       1
P               5.11117000     -2.82502000     -4.75930000      15
C               0.14434200      5.65476000      5.00651000       6
H              -5.41931000      1.32974000      5.19277000       1
I              -2.14343000     -0.33282000      7.36507000      53
I              -3.65652000      6.65486000     -1.58538000      53
H               0.65708100      5.12310000      5.81141000       1
I              -6.40729000      4.30702000      1.04805000      53
H              -3.25099000     -6.63681000     -2.58821000       1
H              -7.06573000     -3.43478000     -0.95007400       1
H               6.30990000      1.99329000      4.37112000       1
H               0.94896000     -3.91394000     -6.83956000       1
H              -0.55627500     -3.06150000     -7.31978000       1
I               0.28460200     -7.80751000     -1.55919000      53
I              -6.35121000     -0.77904400     -4.80216000      53
I              -6.35528000     -4.75189000      1.04805000      53
H              -3.76873000      0.48305900     -7.05400000       1
I               6.98949000      3.63448000      1.57254000      53
H               4.08984000     -6.70152000     -1.78161000       1
H              -0.84815400      5.97553000      5.33120000       1
I               7.73290000     -0.92747100      2.05986000      53
P               0.29742800      1.68167000      7.94522000      15
H               1.89859000      6.58944000      4.36611000       1
P               5.10933000      6.20384000      1.58099000      15
N              -7.42309000     -2.99057000     -1.82648000       7
I               1.14994000      1.97116000     -7.88988000      53
I               2.35221000     -0.80092600      7.84881000      53
H              -3.33607000      2.85144000     -7.00142000       1
H               5.36736000      2.82956000      5.64955000       1
I              -6.04066000      3.86627000     -4.25454000      53
H              -4.05506000     -6.13671000      3.93765000       1
N               0.93954900      6.86448000      4.65972000       7
H               0.46283400      7.38435000      3.89029000       1
C               0.43622100     -3.38227000     -7.64447000       6
N               1.23143000     -2.17255000     -7.99126000       7
N              -3.30147000     -7.70087000     -0.77018800       7
H               3.76385000      1.35162000     -7.45820000       1
H              -4.85345000     -6.70152000     -1.78161000       1
I              -1.26240000      8.13144000      2.05986000      53
H              -7.21965000     -3.65577000     -2.60251000       1
C              -3.95297000     -7.26529000     -2.03550000       6
P              -8.26696000      1.74212000      1.57014000      15
H               0.89695100      5.14498000     -6.83956000       1
H              -6.99270000     -2.46948000      4.36611000       1
I               0.96208100     -7.10964000      4.76110000      53
H              -2.43562000     -8.23339000     -0.97983200       1
I               5.28677000      6.65486000     -1.58538000      53
H              -2.58138000     -7.06562000      4.37112000       1
P               0.58930700     -7.35536000     -4.70575000      15
P              -3.88413000      6.23389000     -4.75930000      15
H               5.17456000      0.48305900     -7.05400000       1
H               4.88823000     -6.13671000      3.93765000       1
I               7.03973000     -0.31093800     -5.28590000      53
I              -4.45219000      5.98262000      4.70167000      53
I               4.49110000      5.98262000      4.70167000      53
H              -2.39352000      2.01518000     -8.27986000       1
N              -4.21875000      1.09756000     -7.76412000       7
H               2.19046000     -2.44760000     -8.28486000       1
I              -8.71070000      1.25141000     -1.55919000      53
H               0.75471300     -1.65268000     -8.76069000       1
C              -3.39067000      2.32006000     -7.95402000       6
C              -3.57853000     -6.76073000      4.69695000       6
I              -5.98865000     -5.19265000     -4.25454000      53
I               7.04150000     -5.42444000      1.57254000      53
C               4.99032000     -7.26529000     -2.03550000       6
I              -1.75177000      4.12650000      7.89990000      53
H               5.92268000     -6.89111000     -0.17677400       1
H              -3.52393000     -6.22936000      5.64955000       1
H               5.69230000     -6.63681000     -2.58821000       1
H               8.85159000     -2.01237000     -0.88766600       1
H              -7.11774000      5.62413000     -0.95007400       1
N               4.72454000      1.09756000     -7.76412000       7
H              -5.17944000      1.35162000     -7.45820000       1
H              -3.93830000     -8.29554000     -0.20044700       1
H              -9.03499000     -2.01237000     -0.88766600       1
P              -4.07199000     -2.84690000      7.89168000      15
P               5.05916000      6.23389000     -4.75930000      15
H               1.03705000      7.48036000      5.48889000       1
H               8.67376000     -2.25397000     -2.65702000       1
H               8.48214000     -3.64397000     -1.53786000       1
I               9.17588000      1.25141000     -1.55919000      53
H               5.60723000      2.85144000     -7.00142000       1
H              -7.27166000      5.40315000     -2.60251000       1
H              -8.42845000     -1.67457000      3.89029000       1
H               0.36214200     -4.01311000     -8.53320000       1
C              -8.87893000     -2.70356000     -1.71904000       6
I              -1.69976000     -4.93242000      7.89990000      53
N              -7.95173000     -2.19443000      4.65972000       7
I              -4.16032000     -3.05442000     -7.94930000      53
H              -0.60828400      5.99742000     -7.31978000       1
C               0.38421200      5.67664000     -7.64447000       6
I              -8.03322000      1.94928000      4.76110000      53
H              -4.20937000     -8.15404000     -2.61670000       1
C               9.00766000     -2.70356000     -1.71904000       6
N               5.64182000     -7.70087000     -0.77018800       7
I               2.66277000      3.84439000      8.39644000      53
I               3.27572000      8.92001000      1.63729000      53
H               5.00499000     -8.29554000     -0.20044700       1
H              -4.31590000      0.58211300     -8.66171000       1
P               4.87130000     -2.84690000      7.89168000      15
H              -7.85423000     -1.57855000      5.48889000       1
I               7.43139000      4.14838000     -4.75107000      53
I               4.78298000     -3.05442000     -7.94930000      53
P              -8.40599000      1.70355000     -4.70575000      15
H               4.73392000     -8.15404000     -2.61670000       1
N              -7.47510000      6.06834000     -1.82648000       7
C               5.36476000     -6.76073000      4.69695000       6
H               4.62739000      0.58211300     -8.66171000       1
H              -9.21282000     -2.25397000     -2.65702000       1
P               9.61962000      1.74212000      1.57014000      15
I               2.54007000      8.27987000     -4.80216000      53
H              -3.28406000     -6.20748000     -7.00142000       1
H               0.31013300      5.04581000     -8.53320000       1
I               3.37974000     -9.19782000      1.63729000      53
C               5.55262000      2.32006000     -7.95402000       6
H               3.57599000     -7.72918000      5.19277000       1
H              -3.86720000      2.94409000     -8.71333000       1
H               5.41937000     -6.22936000      5.64955000       1
