200
cutoff_factor=1.20000000 nneightol=1.20000000 Lattice="29.64017000       0.00000000       0.00000000       0.00000000      28.82619000       0.00000000       0.00000000       0.00000000      28.10800000" Properties=species:S:1:pos:R:3:Z:I:1
I              -0.99851000      0.67342100     -0.53783500      53
P               0.83122100     -1.95011000     -0.74351300      15
H               0.72699600      1.14349000      2.33964000       1
H              -2.02907000     -1.50993000      2.22141000       1
I               0.65149100     -2.15708000      2.51823000      53
H              -0.52585400      2.42878000      2.34126000       1
C               0.45149700      2.12771000      2.72496000       6
H               1.26159000      1.58021000     -2.96686000       1
I               3.50506000     -0.21820100     -0.78408200      53
H              -3.21970000     -1.53308000      1.05376000       1
H               1.52055000      3.17408000      1.22289000       1
N              -3.03879000     -1.33107000      2.05818000       7
H              -3.24309000     -0.32427800      2.21515000       1
H              -0.02032310      2.83520000     -2.94832000       1
N               1.46553000      3.11679000      2.26246000       7
C               0.54486000      2.13940000     -3.57271000       6
I              -1.98533000     -3.71063000     -0.65158800      53
H              -0.13134500      1.45650000     -4.09214000       1
H               0.45001300      2.12478000      3.81709000       1
I               0.64351400     -1.90278000     -3.93620000      53
P              -3.61944000      2.49111000     -0.75518000      15
H               2.41551000      2.87379000      2.60607000       1
H              -2.90520000     -2.70170000     -2.83314000       1
H               1.24855000      4.07164000      2.60862000       1
I               2.59556000      4.23333000     -0.87856400      53
I              -3.82715000      2.32623000      2.51452000      53
H              -2.00577000     -2.30067000     -4.17839000       1
H               3.96908000     -1.99118000      2.70144000       1
H              -3.62387000     -0.54584100     -3.72827000       1
C              -3.88731000     -2.20127000      2.92290000       6
I               2.47460000     -4.68092000     -0.87856400      53
I              -5.40015000     -0.21820100     -0.78408200      53
N              -2.96536000     -2.54714000     -3.86330000       7
I              -1.86437000      5.20361000     -0.65158800      53
H              -3.65006000     -3.24443000      2.70187000       1
N               1.29875000      2.92482000     -4.59150000       7
H               1.12759000     -4.84261000      2.60862000       1
H              -3.66422000     -1.97218000      3.96730000       1
H               3.97586000     -1.77191000     -3.83833000       1
H               1.95153000      3.58379000     -4.13751000       1
I              -3.45684000      2.65435000     -3.94777000      53
P               5.28578000      2.49111000     -0.75518000      15
I              -1.19158000      0.47977900      5.78125000      53
C              -3.94554000     -1.47324000     -4.20719000       6
H              -4.93614000     -1.99118000      2.70144000       1
H               5.68552000     -1.53308000      1.05376000       1
H               1.83695000      2.28803000     -5.21876000       1
H               1.39958000     -5.74017000      1.22289000       1
H               5.66213000     -0.32427800      2.21515000       1
I               5.07806000      2.32623000      2.51452000      53
P               0.69269500     -2.10088000      5.74253000      15
C               5.01791000     -2.20127000      2.92290000       6
H               0.64871400      3.45610000     -5.20968000       1
N               5.86643000     -1.33107000      2.05818000       7
N               1.34456000     -5.79745000      2.26246000       7
H              -3.22703000     -3.45706000     -4.28332000       1
H               5.28135000     -0.54584100     -3.72827000       1
H              -4.92936000     -1.77191000     -3.83833000       1
C               4.95968000     -1.47324000     -4.20719000       6
I               3.31393000     -0.26736700      5.81238000      53
H               5.25516000     -3.24443000      2.70187000       1
H              -3.96384000     -1.35644000     -5.29323000       1
H              -0.14128600     -6.07905000     -2.94832000       1
H               5.24100000     -1.97218000      3.96730000       1
H              -0.64681700     -6.48546000      2.34126000       1
H               2.29454000     -6.04045000      2.60607000       1
H               1.83056000     -5.33046000     -4.13751000       1
P               0.95218400      6.96414000     -0.74351300      15
H               6.00001000     -2.70170000     -2.83314000       1
H              -3.52909000      5.66982000      2.70187000       1
I               5.44838000      2.65435000     -3.94777000      53
I               0.77245500      6.75716000      2.51823000      53
P              -3.73550000      2.39216000      5.75080000      15
C               0.33053400     -6.78653000      2.72496000       6
I              -1.97681000     -3.93499000      5.86495000      53
H               4.94138000     -1.35644000     -5.29323000       1
H              -2.78424000      6.21255000     -2.83314000       1
H               6.87615000     -1.50993000      2.22141000       1
I              -1.68683000     -0.00833436     -7.22607000      53
P               0.88860100     -1.83411000     -7.15098000      15
P              -3.74040000     -6.42313000     -0.75518000      15
N               5.93985000     -2.54714000     -3.86330000       7
I               2.59430000      4.21793000      5.67572000      53
H              -6.48971000      2.87379000      2.60607000       1
H               0.52775000     -5.45814000     -5.20968000       1
I               2.76825000      0.75299500     -7.03684000      53
H              -3.10607000      5.45719000     -4.28332000       1
N               1.17779000     -5.98942000     -4.59150000       7
I              -6.30966000      4.23333000     -0.87856400      53
C               0.42389700     -6.77484000     -3.57271000       6
I               2.47333000     -4.69632000      5.67572000      53
H               0.32905000     -6.78947000      3.81709000       1
I               6.91988000     -3.71063000     -0.65158800      53
H               5.67819000     -3.45706000     -4.28332000       1
I              -1.85584000      4.97926000      5.86495000      53
I               7.90671000      0.67342100     -0.53783500      53
H              -1.90811000      7.40431000      2.22141000       1
N              -2.84440000      6.36711000     -3.86330000       7
H               1.14063000     -7.33404000     -2.96686000       1
I              -6.43062000     -4.68092000     -0.87856400      53
H              -1.88481000      6.61358000     -4.17839000       1
I              -5.59129000     -0.26736700      5.81238000      53
H              -3.09873000      7.38117000      1.05376000       1
I               0.76447700      7.01147000     -3.93620000      53
I              -3.94812000     -6.58802000      2.51452000      53
P               5.16972000      2.39216000      5.75080000      15
H              -7.38467000      3.17408000      1.22289000       1
H               0.60603300     -7.77075000      2.33964000       1
H               0.31727900      2.86982000      7.60855000       1
I              -3.57780000     -6.25989000     -3.94777000      53
C              -3.76635000      6.71298000      2.92290000       6
H               5.37613000      5.66982000      2.70187000       1
P               5.16481000     -6.42313000     -0.75518000      15
I              -1.11947000     -8.24082000     -0.53783500      53
P              -8.07400000     -1.95011000     -0.74351300      15
H              -7.64363000      1.58021000     -2.96686000       1
P              -3.46746000      2.58711000     -7.15925000      15
N              -7.43969000      3.11679000      2.26246000       7
N              -2.91783000      7.58318000      2.05818000       7
H               6.89944000     -2.30067000     -4.17839000       1
I              -0.84623000      4.42062000     -7.08940000      53
I              -0.96719400     -4.49363000     -7.08940000      53
H               4.09005000      6.92306000      2.70144000       1
H              -0.25230800     -7.45774000     -4.09214000       1
H              -2.90811000     -2.39996000      7.68303000       1
H              -8.17822000      1.14349000      2.33964000       1
H               1.71598000     -6.62622000     -5.21876000       1
I               4.95710000     -6.58802000      2.51452000      53
H               1.05409000      0.76920500      8.61846000       1
H              -3.54326000      6.94206000      3.96730000       1
I               3.43252000     -3.74648000     -7.12054000      53
I               7.04085000      5.20361000     -0.65158800      53
H              -4.09635000     -1.23188000      7.69210000       1
H              -6.95369000      3.58379000     -4.13751000       1
H              -4.81517000      6.92306000      2.70144000       1
I              -8.25373000     -2.15708000      2.51823000      53
C               5.13887000      6.71298000      2.92290000       6
P               0.81365900      6.81337000      5.74253000      15
H               8.37936000      2.42878000      2.34126000       1
H               5.79915000      5.45719000     -4.28332000       1
H              -7.65667000      4.07164000      2.60862000       1
H              -7.06827000      2.28803000     -5.21876000       1
H               4.09682000      7.14233000     -3.83833000       1
I               5.32741000     -6.25989000     -3.94777000      53
C               0.33558500      2.75302000      8.69459000       6
C              -8.45372000      2.12771000      2.72496000       6
H               4.80887000     -1.23188000      7.69210000       1
N              -3.44631000     -1.76316000      8.31028000       7
H               6.12098000      6.21255000     -2.83314000       1
I               0.70331700     -2.03363000      8.95401000      53
H               2.27535000      1.92559000      8.72339000       1
H              -2.79353000     -1.10420000      8.76427000       1
N               1.31576000      1.67912000      9.03848000       7
H              -6.61067000     -6.04045000      2.60607000       1
C              -8.36036000      2.13940000     -3.57271000       6
I              -8.26170000     -1.90278000     -3.93620000      53
N              -7.60646000      2.92482000     -4.59150000       7
P               5.43776000      2.58711000     -7.15925000      15
C              -3.82457000      7.44100000     -4.20719000       6
I              -6.13696000      0.75299500     -7.03684000      53
H               1.08084000      2.71580000     -8.93448000       1
H              -3.12212000      8.58997000      2.21515000       1
H              -0.64823500      2.45435000      9.06345000       1
H              -4.80839000      7.14233000     -3.83833000       1
H               5.80649000      7.38117000      1.05376000       1
I               3.62603000      8.69604000     -0.78408200      53
I              -6.31092000      4.21793000      5.67572000      53
I               3.55348000      5.16776000     -7.12054000      53
P              -3.85646000     -6.52209000      5.75080000      15
H              -8.45520000      2.12478000      3.81709000       1
H              -7.77763000     -4.84261000      2.60862000       1
H              -7.50563000     -5.74017000      1.22289000       1
N               6.06082000      6.36711000     -3.86330000       7
H               5.36196000      6.94206000      3.96730000       1
I              -0.87754600      9.58767000     -0.53783500      53
I               7.71364000      0.47977900      5.78125000      53
H               0.19631600     -6.04442000      7.60855000       1
I              -5.47270000     -3.74648000     -7.12054000      53
I               3.38410000     -9.13245000     -0.78408200      53
H              -7.07465000     -5.33046000     -4.13751000       1
I              -6.43189000     -4.69632000      5.67572000      53
H               8.88489000      2.83520000     -2.94832000       1
H               8.77387000      1.45650000     -4.09214000       1
N              -7.56065000     -5.79745000      2.26246000       7
H              -3.50290000      8.36840000     -3.72827000       1
H              -8.92554000      2.83520000     -2.94832000       1
N               5.98739000      7.58318000      2.05818000       7
I               6.92841000     -3.93499000      5.86495000      53
H               0.65725500      3.68042000      9.17352000       1
I              -9.90373000      0.67342100     -0.53783500      53
C               5.08065000      7.44100000     -4.20719000       6
P               9.73644000     -1.95011000     -0.74351300      15
C               9.35671000      2.12771000      2.72496000       6
H               9.63221000      1.14349000      2.33964000       1
H              -3.84288000      7.55781000     -5.29323000       1
H              -9.43107000      2.42878000      2.34126000       1
H              -9.03656000      1.45650000     -4.09214000       1
H               5.99710000     -2.39996000      7.68303000       1
P               5.04876000     -6.52209000      5.75080000      15
H              -3.36405000     -9.23852000      2.21515000       1
