200
cutoff_factor=1.20000000 nneightol=1.20000000 Lattice="29.35373000       0.00000000       0.00000000       0.00000000      29.24926000       0.00000000       0.00000000       0.00000000      29.52701000" Properties=species:S:1:pos:R:3:Z:I:1
I              -0.71345900     -0.11557800      1.53062000      53
H               0.30001900      1.64148000     -1.11822000       1
H              -1.48905000      1.58896000     -0.98886900       1
C              -0.64234100      1.75395000     -1.65880000       6
H              -0.68394900      1.06262000     -2.50326000       1
P               1.76462000     -2.17480000      0.79923900      15
I               1.46656000     -1.45352000     -2.28644000      53
N              -0.72326600      3.14313000     -2.18163000       7
P              -3.37557000     -2.04633000      0.72701600      15
I              -3.00625000     -1.35716000     -2.37743000      53
H              -0.69857200      3.81930000     -1.38329000       1
I              -0.89748900     -4.10555000     -0.00436380      53
I               4.23288000     -0.07619550      1.00304000      53
H               3.56960000      0.26072000     -2.50644000       1
H               0.05895480      3.37496000     -2.83535000       1
H              -1.63515000      3.30297000     -2.67132000       1
P              -0.73716800     -3.56990000     -3.29777000      15
P              -0.87378000     -0.65123300      4.82403000      15
I               1.39530000     -2.86397000      3.90368000      53
H               4.14233000      1.39948000      2.90955000       1
I              -0.78911900      5.29498000      0.52321700      53
N               4.31331000      0.51895600     -3.18256000       7
H               3.14373000      3.57730000      2.64448000       1
I              -3.07750000     -2.76762000      3.81269000      53
H               2.94024000      0.96864100     -4.71494000       1
H               4.63946000      1.49842000     -3.04044000       1
H               3.38480000      1.84383000      4.36160000       1
H              -5.02086000     -0.10870700     -2.98884000       1
H               3.52469000     -0.72724500     -4.68461000       1
H               5.12719000     -0.10870700     -2.98884000       1
N               4.16702000      2.07565000      3.70788000       7
C               3.80723000      0.32152700     -4.56810000       6
I               4.30422000     -4.14493000      0.52321700      53
I              -5.91517000     -0.07619550      1.00304000      53
H              -1.19570000      3.72036000      4.56669000       1
I               1.96246000      3.82900000     -4.32606000      53
I              -2.84607000      1.78673000      5.15071000      53
I               1.48130000      1.38978000      5.85232000      53
H              -1.74941000      0.26046400     -5.96858000       1
C               4.08609000      3.46484000      3.18506000       6
I              -3.85822000      3.43205000     -3.62446000      53
H              -0.12191500     -5.81010000      2.51511000       1
H              -0.12584300      4.95807000      4.03269000       1
H              -3.41216000      0.64534700     -5.41521000       1
H              -5.50858000      1.49842000     -3.04044000       1
H               4.93279000      3.62982000      2.51511000       1
N              -5.83473000      0.51895600     -3.18256000       7
H              -0.92699800     -5.28376000      4.02951000       1
H              -1.91098000     -5.86261000      2.64448000       1
N              -0.86955600      4.69983000      4.70882000       7
C              -2.61642000      0.90757400     -6.11542000       6
H              -2.33388000      1.95635000     -5.99891000       1
I               4.15722000      5.33436000     -0.00436380      53
H              -6.00572000      1.39948000      2.90955000       1
H              -5.21525000      3.62982000      2.51511000       1
C              -0.96861500     -5.97508000      3.18506000       6
H              -5.06914000      1.91581000      4.19757000       1
H               5.07891000      1.91581000      4.19757000       1
I              -0.77164000     -2.59990000     -6.35745000      53
H               3.40991000     -4.11243000      4.51510000       1
H               4.60298000      0.58374700     -5.26831000       1
H              -6.57845000      0.26072000     -2.50644000       1
H               4.12771000      4.15616000      4.02951000       1
P               6.77248000     -2.04633000      0.72701600      15
I               1.23512000     -6.00787000     -3.62446000      53
H              -1.68343000      5.32749000      4.51510000       1
I              -5.84382000     -4.14493000      0.52321700      53
H               4.39477000     -5.62061000     -1.38329000       1
N              -5.98102000      2.07565000      3.70788000       7
H               3.45819000     -6.13694000     -2.67132000       1
H               0.50352600      4.25014000      6.24119000       1
P               1.67914000      7.39359000      0.72701600      15
I               7.14180000     -1.35716000     -2.37743000      53
H              -5.54506000      0.58374700     -5.26831000       1
C              -6.06195000      3.46484000      3.18506000       6
I              -3.09225000     -5.61091000     -4.32606000      53
H               4.96750000     -4.48185000      4.03269000       1
C              -6.34081000      0.32152700     -4.56810000       6
C              -0.36347700      4.89725000      6.09435000       6
N               4.22378000     -4.74009000      4.70882000       7
I               1.97720000      6.67230000      3.81269000      53
H              -5.18055000     -4.48185000      4.03269000       1
N               4.37007000     -6.29679000     -2.18163000       7
P               4.31754000      5.87001000     -3.29777000      15
I              -5.99083000      5.33436000     -0.00436380      53
I               6.28983000      3.43205000     -3.62446000      53
P              -3.32872000      7.26511000      0.79923900      15
I              -0.83930800     -1.62124000      7.88371000      53
H              -6.62335000     -0.72724500     -4.68461000       1
N              -3.12250000      0.71014600     -7.50096000       7
H              -5.75328000     -5.62061000     -1.38329000       1
H               1.13186000     -2.14585000     -7.84817000       1
H              -6.76324000      1.84383000      4.36160000       1
H               3.89764000     -5.71956000      4.56669000       1
N              -0.88768500     -7.36426000      3.70788000       7
H              -7.00432000      3.57730000      2.64448000       1
H              -1.15922000      4.63503000      6.79456000       1
H              -6.02034000      4.15616000      4.02951000       1
H              -4.99575000     -6.06496000     -2.83535000       1
H              -3.44864000     -0.26932300     -7.64308000       1
H               1.87477000      0.16648100     -8.18026000       1
H               5.15229000     -6.06496000     -2.83535000       1
I              -3.69804000      6.57595000      3.90368000      53
I               7.07054000     -2.76762000      3.81269000      53
H              -0.41524500     -7.94149000     -3.04044000       1
H              -2.37878000      0.96838600     -8.17708000       1
H              -0.08094310      5.94603000      6.21086000       1
H              -0.91238000     -8.04044000      2.90955000       1
H               0.02420130     -7.52410000      4.19757000       1
H               1.80122000     -4.86649000      6.94146000       1
H               6.73588000      0.64534700     -5.41521000       1
H              -7.20781000      0.96864100     -4.71494000       1
I               2.04846000      8.08275000     -2.37743000      53
H               3.60429000     -7.85096000     -0.98886900       1
P              -8.38343000     -2.17480000      0.79923900      15
H               5.01240000     -3.49389000      6.21086000       1
H               0.13847000     -4.48160000      7.49483000       1
H               2.82597000     -2.07387000     -8.01220000       1
H              -3.93637000      1.33781000     -7.69468000       1
H              -5.13565000     -3.49389000      6.21086000       1
I              -0.27573900      2.68262000     -8.39708000      53
N              -5.77797000     -6.29679000     -2.18163000       7
H               8.65900000      1.58896000     -0.98886900       1
P              -5.83051000      5.87001000     -3.29777000      15
H              -1.66990000     -7.59609000      4.36160000       1
N               1.91408000     -1.91402000     -8.50189000       7
N              -5.92426000     -4.74009000      4.70882000       7
H              -3.29212000      4.57343000      6.94146000       1
C               4.72986000     -4.54266000      6.09435000       6
I               5.04904000     -2.20295000     -7.05906000      53
I              -5.09901000     -2.20295000     -7.05906000      53
P               1.92799000      4.79900000     -7.38575000      15
C               4.45100000     -7.68597000     -1.65880000       6
P               1.51577000      0.41977500      8.91200000      15
I              -3.62678000      7.98640000     -2.28644000      53
H              -6.73814000     -4.11243000      4.51510000       1
I              -8.68149000     -1.45352000     -2.28644000      53
I               7.30198000      1.78673000      5.15071000      53
H              -4.75469000     -7.79844000     -1.11822000       1
H               3.93412000     -4.80489000      6.79456000       1
C               1.83315000     -0.52484200     -9.02471000       6
C               1.00547000     -5.12871000      7.64167000       6
P              -3.12672000     -4.64091000     -7.38575000      15
H              -4.37041000      3.26243000      7.52516000       1
H              -4.55118000     -5.18977000      6.24119000       1
C              -5.41818000     -4.54266000      6.09435000       6
I              -0.86046200      9.36372000      1.00304000      53
H              -6.68986000     -6.13694000     -2.67132000       1
I               3.48806000     -2.01819000      8.58531000      53
I               2.24727000     -7.65318000      5.15071000      53
N              -0.74139400     -8.92096000     -3.18256000       7
H               8.51289000      3.30297000     -2.67132000       1
H               5.39336000     -7.79844000     -1.11822000       1
I               9.43459000     -0.11557800      1.53062000      53
I              -0.82182900     -9.51611000      1.00304000      53
H               0.89078700     -0.41237500     -9.56529000       1
H              -6.25041000     -5.71956000      4.56669000       1
H              -1.48511000     -9.17920000     -2.50644000       1
I               4.19706000      2.58627000     -8.30609000      53
C              -4.08787000      4.31121000      7.64167000       6
C              -5.69705000     -7.68597000     -1.65880000       6
C               7.53163000      0.90757400     -6.11542000       6
H               0.72292800     -6.17748000      7.52516000       1
H               4.40939000     -8.37729000     -2.50326000       1
H               0.03384880      9.33121000     -2.98884000       1
C               9.50570000      1.75395000     -1.65880000       6
H               1.88939000     -2.59020000     -9.30023000       1
H               9.46410000      1.06262000     -2.50326000       1
H               5.59687000     -5.18977000      6.24119000       1
H              -2.11447000     -8.47128000     -4.71494000       1
H               6.21167000      1.33781000     -7.69468000       1
H               2.75946000     -7.48357000     -5.99891000       1
H              -2.74281000     -2.07528000      9.37442000       1
P               6.81933000      7.26511000      0.79923900      15
I               7.05580000     -5.61091000     -4.32606000      53
I              -8.75275000     -2.86397000      3.90368000      53
I               6.45000000      6.57595000      3.90368000      53
H               0.07248180     -9.54862000     -2.98884000       1
H              -1.56864000      8.71267000     -4.68461000       1
I              -8.18559000      3.82900000     -4.32606000      53
H               5.77763000      3.26243000      7.52516000       1
H               7.81416000      1.95635000     -5.99891000       1
H              -9.84803000      1.64148000     -1.11822000       1
H               2.67985000     -0.35985800     -9.69466000       1
I              -0.04430280      7.23697000     -7.05906000      53
I               9.25056000     -4.10555000     -0.00436380      53
H              -1.52374000      9.70064000     -2.50644000       1
H               1.83769000     -3.95181000      9.16933000       1
H               6.69940000     -0.26932300     -7.64308000       1
N               9.42478000      3.14313000     -2.18163000       7
I              -0.75330600      2.63252000      9.83235000      53
H              -4.95487000      4.95832000      7.49483000       1
H              -6.54375000     -7.85096000     -0.98886900       1
I               4.28307000      6.84001000     -6.35745000      53
C              -1.24747000     -9.11839000     -4.56810000       6
H               9.44947000      3.81930000     -1.38329000       1
N               7.02555000      0.71014600     -7.50096000       7
H               8.39863000      0.26046400     -5.96858000       1
H              -0.45172200     -8.85617000     -5.26831000       1
H               5.19318000      4.95832000      7.49483000       1
