200
cutoff_factor=1.20000000 nneightol=1.20000000 Lattice="28.31290000       0.00000000       0.00000000       0.00000000      28.16120000       0.00000000       0.00000000       0.00000000      28.39967000" Properties=species:S:1:pos:R:3:Z:I:1
P              -0.72555400     -1.02221000     -1.63205000      15
I               1.03644000      1.66878000     -1.15703000      53
H               0.36017300      1.23594000      2.01509000       1
I              -2.65949000     -0.03823800      0.68277500      53
I               1.09592000     -2.69901000      0.33008900      53
C               0.90754000      1.45922000      2.93365000       6
H              -1.20788000      3.13434000     -1.08215000       1
H               1.37447000      0.55497000      3.33053000       1
H               2.62757000      2.04393000      1.91452000       1
H              -1.57077000     -2.98174000      2.05281000       1
H              -2.79305000      2.66400000     -0.82965700       1
N               1.98301000      2.44796000      2.61616000       7
H               0.24099400      1.90123000      3.67743000       1
N              -2.16250000      3.48308000     -0.86132700       7
H               1.59287000      3.32577000      2.21977000       1
H              -2.14597000      3.89799000      0.09129990       1
H               4.27254000     -1.40571000     -0.44368300       1
I              -2.38272000      0.77071000     -3.80705000      53
H               3.47321000     -1.41230000     -2.74676000       1
I               1.22199000     -1.80042000     -4.11352000      53
H               4.64075000      0.14649500     -1.26689000       1
H              -3.33332000     -3.07781000      1.73341000       1
C              -2.50578000     -3.47701000      2.32389000       6
I              -2.55971000     -3.53124000     -2.26452000      53
H               2.54081000      2.67323000      3.46018000       1
C               4.85999000     -0.92303700     -1.22817000       6
H              -0.04741270      1.49771000     -4.92279000       1
I               4.29847000     -0.61340500      2.80265000      53
H               1.62176000      1.61966000     -4.67209000       1
I              -2.07366000      3.87065000      2.82117000      53
H              -5.00669000     -1.08950000     -1.06293000       1
P               2.92695000     -3.47393000      2.82165000      15
H              -2.86283000     -2.18796000      3.95350000       1
N               4.48611000     -1.53171000     -2.54179000       7
P              -4.36357000      1.59029000      2.79880000      15
P               3.00582000      4.20004000     -1.69997000      15
C              -2.64521000      4.46912000     -1.87599000       6
H              -2.65769000      3.98189000     -2.85366000       1
H              -2.42134000     -4.55702000      2.18403000       1
I               0.67995600     -2.62745000      4.92160000      53
H               1.71811000     -5.01638000     -1.88237000       1
N               0.82725000      1.96001000     -5.24554000       7
N              -2.78116000     -3.20647000      3.76715000       7
H               0.02847450     -5.54760000     -1.59500000       1
I               1.46335000      5.63702000      0.76385400      53
H               4.67688000     -2.55225000     -2.55870000       1
H               0.74558300      2.97852000     -5.05918000       1
I               5.09177000      3.04717000      0.38955300      53
H              -1.98665000     -3.54682000      4.34060000       1
H              -1.96139000      5.32088000     -1.88237000       1
I              -2.88574000      0.14973900      5.26028000      53
H               5.00596000     -1.10862000     -3.33328000       1
H               5.92665000     -1.08950000     -1.06293000       1
H              -1.10461000     -2.49756000     -5.55250000       1
H              -3.65103000      4.78967000     -1.59500000       1
C               1.03429000     -5.86815000     -1.87599000       6
C              -6.07335000     -0.92303700     -1.22817000       6
H              -6.29259000      0.14649500     -1.26689000       1
I               4.28837000      2.53903000     -4.09109000      53
I               0.72266900      5.31622000     -3.75240000      53
H              -3.65583000     -3.66877000      4.08990000       1
I              -5.84157000      3.04717000      0.38955300      53
H               1.53353000     -6.43928000      0.09129990       1
H              -6.66080000     -1.40571000     -0.44368300       1
H              -5.92738000     -1.10862000     -3.33328000       1
H               1.18707000      0.60945800     -6.82866000       1
C               1.10263000      1.68947000     -6.68880000       6
I               5.14285000     -4.70025000      0.76385400      53
I               1.08571000      1.63955000      6.74816000      53
H               1.02181000     -6.35538000     -2.85366000       1
N               1.51700000     -6.85419000     -0.86132700       7
N              -6.44723000     -1.53171000     -2.54179000       7
H              -3.40443000     -3.26956000     -5.33526000       1
N              -1.66242000     -2.72282000     -6.39653000       7
H              -6.25646000     -2.55225000     -2.55870000       1
I              -6.63487000     -0.61340500      2.80265000      53
I               1.60585000     -6.46662000      2.82117000      53
P               6.56977000      1.59029000      2.79880000      15
H              -2.05255000     -1.84502000     -6.79292000       1
H              -2.28196000      4.06217000      5.67941000       1
P              -0.60259600     -0.96644000      7.31271000      15
H              -2.61104000      2.61854000      6.45399000       1
P              -0.75255000      6.86334000      2.82165000      15
I              -5.79049000     -4.70025000      0.76385400      53
H               2.03764000      2.18473000     -6.95988000       1
H               0.27509800      2.08867000     -7.27928000       1
I              -2.16206000     -7.29010000      0.38955300      53
C              -2.73788000     -3.71157000     -6.07903000       6
P              -4.24802000     -6.13723000     -1.69997000      15
I               4.40217000     -5.02105000     -3.75240000      53
H              -2.27095000     -4.61582000     -5.68215000       1
I               4.86741000      3.37037000      4.89916000      53
H               2.47162000     -7.20293000     -1.08215000       1
P               2.92435000     -3.58049000     -6.21388000      15
H               0.88645900     -7.67327000     -0.82965700       1
P              -4.39797000      1.69255000     -6.19104000      15
H               4.66723000     -1.18459000      6.15903000       1
H              -1.01785000     -3.12686000     -7.09816000       1
H               4.83249000      5.78025000      2.18403000       1
N              -2.80181000      3.63908000      6.47089000       7
I               1.26270000      5.94150000      5.20564000      53
I              -2.58358000      7.63826000      0.33008900      53
H              -7.46013000     -1.41230000     -2.74676000       1
I               5.21426000     -1.30014000     -6.19151000      53
I              -6.64497000      2.53903000     -4.09109000      53
H              -3.81470000      3.75848000      6.26593000       1
H               0.99737600      7.78502000     -2.55870000       1
I              -3.02646000      4.55307000     -6.21003000      53
H               3.67390000     -0.37680800      7.41769000       1
I               8.27385000     -0.03823800      0.68277500      53
H               7.60002000     -3.07781000      1.73341000       1
I               4.94220000     -4.39577000      5.20564000      53
H               3.92052000      7.25946000      1.73341000       1
I              -6.06592000      3.37037000      4.89916000      53
I               0.65304900     -5.78419000     -6.21003000      53
I              -5.71908000     -1.30014000     -6.19151000      53
I              -2.18207000      0.46622800     -8.24883000      53
C               4.67971000     -0.69736200      7.13669000       6
I               4.69413000      6.80603000     -2.26452000      53
H               1.39755000     -6.27510000      5.67941000       1
H               8.14029000      2.66400000     -0.82965700       1
H               3.59801000      6.66850000      4.08990000       1
C               4.74805000      6.86026000      2.32389000       6
H              -3.28525000     -3.93485000     -6.99759000       1
H              -6.10085000      5.78025000      2.18403000       1
H              -8.30577000      2.04393000      1.91452000       1
I              -2.38642000     -6.96690000      4.89916000      53
H               7.28231000      4.78967000     -1.59500000       1
H              -6.26610000     -1.18459000      6.15903000       1
H               5.36353000      0.15440400      7.13032000       1
P               2.91987000      4.14858000      7.38063000      15
H               0.59303400      8.93156000     -0.44368300       1
I              -2.57198000     -3.49770000      7.85566000      53
I               1.44635000     -2.12362000     -8.62313000      53
H              -1.36127000      4.08129000      7.94975000       1
H               5.27238000     -7.01150000      2.21977000       1
H              -5.56981000      0.15440400      7.13032000       1
I              -6.53117000     -5.02105000     -3.75240000      53
I              -5.99114000     -4.39577000      5.20564000      53
H              -0.13519900     -6.57878000      6.26593000       1
H               7.27751000     -3.66877000      4.08990000       1
P              -7.92752000      4.20004000     -1.69997000      15
P               6.53537000      1.69255000     -6.19104000      15
P              -8.00638000     -3.47393000      2.82165000      15
C              -2.42793000      4.24775000      7.78451000       6
N               0.80660300      8.80556000     -2.54179000       7
P              -0.68406500     -8.74697000      2.79880000      15
P              -0.75515600      6.75677000     -6.21388000      15
N               4.47267000      7.13080000      3.76715000       7
P               6.68532000     -6.13723000     -1.69997000      15
H               8.07051000     -2.18796000      3.95350000       1
H              -5.25027000      7.35552000      2.05281000       1
H              -5.66096000     -7.01150000      2.21977000       1
H               1.03234000     -5.01998000      7.74580000       1
I              -2.96546000     -7.79824000     -4.09109000      53
H              -0.20629100      8.92496000     -2.74676000       1
N               0.87769500     -6.69819000      6.47089000       7
I               8.37363000     -3.53124000     -2.26452000      53
I               8.55062000      0.77071000     -3.80705000      53
C               8.42756000     -3.47701000      2.32389000       6
H              -8.39253000      2.67323000      3.46018000       1
N               8.77084000      3.48308000     -0.86132700       7
H               4.98289000      5.72145000     -5.68215000       1
H              -4.81630000     -2.03214000      7.93054000       1
I              -6.23921000      6.80603000     -2.26452000      53
C              -6.25363000     -0.69736200      7.13669000       6
H               5.68307000      7.35552000      2.05281000       1
C              -6.18528000      6.86026000      2.32389000       6
N               8.15218000     -3.20647000      3.76715000       7
C               1.18049000      9.41423000     -1.22817000       6
H               2.24714000      9.24777000     -1.06293000       1
C               8.28813000      4.46912000     -1.87599000       6
H               8.78737000      3.89799000      0.09129990       1
I               8.04759000      0.14973900      5.26028000      53
H               8.27565000      3.98189000     -2.85366000       1
I              -2.99955000      7.70982000      4.92160000      53
H               5.26718000      6.79045000      4.34060000       1
H              -4.71302000     -7.66404000      3.46018000       1
N              -8.95033000      2.44796000      2.61616000       7
H               3.84941000      7.06771000     -5.33526000       1
H               4.53188000     -2.50248000      8.18303000       1
H              -4.62626000     -8.29334000      1.91452000       1
I               1.48336000     -2.11931000      9.40224000      53
H              -2.64717000      5.31728000      7.74580000       1
I              -2.45751000      8.53685000     -4.11352000      53
H               7.52891000     -3.26956000     -5.33526000       1
N               5.16242000     -1.68340000      8.15136000       7
I               0.94892400      5.12824000     -8.32991000      53
H              -3.01538000      3.76508000      8.56900000       1
N              -5.27083000     -7.88930000      2.61616000       7
H              -5.66615000      6.79045000      4.34060000       1
H               8.51200000     -4.55702000      2.18403000       1
H               1.32646000      9.22865000     -3.33328000       1
I               4.71594000     -8.66849000     -1.15703000      53
C               1.25158000     -6.08952000      7.78451000       6
H               4.42509000     -7.35875000     -5.05918000       1
H               3.92050000     -8.43604000      3.67743000       1
I              -2.14507000      0.47053600      9.77654000      53
H              -5.95045000      5.72145000     -5.68215000       1
H               9.36257000     -2.98174000      2.05281000       1
