200
cutoff_factor=1.20000000 nneightol=1.20000000 Lattice="29.68592000       0.00000000       0.00000000       0.00000000      28.80183000       0.00000000       0.00000000       0.00000000      28.31345000" Properties=species:S:1:pos:R:3:Z:I:1
I               1.01994000      0.64671400      0.84083800      53
H              -0.13027700      1.90899000     -1.12231000       1
P              -0.84988400     -1.96083000      0.71155300      15
I              -0.65766500     -1.85854000     -2.49132000      53
N              -0.44688200      2.64596000     -1.78651000       7
I              -3.47073000     -0.13627100      0.71932500      53
H              -2.18503000      1.62595000     -2.41816000       1
H              -0.99298400      3.33159000     -1.22120000       1
H              -0.71791800      1.31180000     -3.39936000       1
H               1.96375000     -1.50606000     -2.82289000       1
C              -1.29731000      2.07176000     -2.87261000       6
H               0.40142100      3.09822000     -2.16596000       1
H              -0.60034100      2.79349000      2.61513000       1
H              -0.76145500      1.41469000      3.75333000       1
H               3.11921000     -0.27680200     -2.67705000       1
H               2.47217000     -0.83699200      3.25892000       1
I               1.83568000     -3.80204000      0.74615100      53
H               3.63760000     -2.10406000     -1.13761000       1
N               2.96849000     -1.26665000     -2.95497000       7
C              -0.55014300      2.48253000      3.66111000       6
H               2.81297000     -2.33000000      2.58464000       1
P               3.64527000      2.55004000      0.70738900      15
I              -0.82545400     -2.11780000      3.91985000      53
N               3.21494000     -1.54247000      3.13874000       7
I               3.35394000      2.41382000     -2.49088000      53
H              -1.57892000      2.87821000     -3.55108000       1
H               3.96482000     -1.11861000      2.54999000       1
H               0.43024400      2.71639000      4.08243000       1
C               3.86104000     -2.19699000     -2.20256000       6
H              -4.01000000     -1.91628000     -2.40044000       1
I              -2.65179000      4.32242000      0.49830100      53
H               3.17744000     -1.32631000     -3.97016000       1
I              -2.57645000     -4.61674000      0.49830100      53
I               1.76034000      5.13712000      0.74615100      53
I               5.43732000     -0.13627100      0.71932500      53
H               3.66783000     -3.21552000     -2.54681000       1
H              -4.94323000     -1.11861000      2.54999000       1
H              -2.54355000      3.03880000      4.07983000       1
N              -1.58197000      3.23486000      4.42490000       7
H               4.89805000     -1.91628000     -2.40044000       1
H              -5.27045000     -2.10406000     -1.13761000       1
H              -0.91764500     -5.60757000     -1.22120000       1
I               0.92535000      0.66651400     -5.74545000      53
P              -5.26278000      2.55004000      0.70738900      15
C              -5.04700000     -2.19699000     -2.20256000       6
I               3.75973000      2.59296000      3.90733000      53
P              -0.96751400     -1.97124000     -5.72238000      15
C               3.74045000     -2.00314000      4.45648000       6
H               0.47676000     -5.84094000     -2.16596000       1
H              -1.41370000      4.26043000      4.36681000       1
H               2.91675000     -2.44238000      5.02400000       1
H              -1.56095000      2.95635000      5.42491000       1
H              -5.78883000     -0.27680200     -2.67705000       1
H              -1.33837000     -4.67872000      4.36681000       1
I              -5.55411000      2.41382000     -2.49088000      53
N              -0.37154300     -6.29320000     -1.78651000       7
H               4.15168000     -1.14088000      4.98646000       1
H              -5.24022000     -3.21552000     -2.54681000       1
N              -5.69311000     -1.54247000      3.13874000       7
I              -3.60026000     -0.14234900     -5.63801000      53
H              -0.52500200     -6.14567000      2.61513000       1
H              -4.38867000     -2.74742000      4.27637000       1
N              -5.93956000     -1.26665000     -2.95497000       7
H               4.51938000     -2.74742000      4.27637000       1
I              -5.14832000      2.59296000      3.90733000      53
H              -4.75636000     -1.14088000      4.98646000       1
H              -6.09508000     -2.33000000      2.58464000       1
P              -0.92522300      6.97833000      0.71155300      15
I               1.80942000     -3.67436000     -5.77527000      53
H              -5.73061000     -1.32631000     -3.97016000       1
C              -5.16760000     -2.00314000      4.45648000       6
H              -0.05493770     -7.03017000     -1.12231000       1
H              -1.50358000     -6.06095000     -3.55108000       1
P               3.49587000      2.61364000     -5.73886000      15
H               3.59249000      5.72364000     -2.54681000       1
H              -6.43588000     -0.83699200      3.25892000       1
H               6.72302000      1.62595000     -2.41816000       1
I               1.84000000     -0.08145900      7.13712000      53
N              -1.50663000     -5.70430000      4.42490000       7
P              -0.78944900     -1.81675000      7.14708000      15
P               3.72061000     -6.38912000      0.70738900      15
C              -0.47480400     -6.45662000      3.66111000       6
H               0.50558300     -6.22277000      4.08243000       1
I              -0.73300400      7.08062000     -2.49132000      53
C              -1.22197000     -6.86740000     -2.87261000       6
H              -2.46821000     -5.90036000      4.07983000       1
I              -2.55124000      0.83440400      7.11067000      53
H               2.73763000      6.60916000      2.58464000       1
I               6.25626000      4.32242000      0.49830100      53
H              -6.94430000     -1.50606000     -2.82289000       1
I              -2.78274000      4.34894000     -5.74882000      53
I               5.30778000     -0.14234900     -5.63801000      53
I               3.42928000     -6.52533000     -2.49088000      53
H               3.56226000      6.83510000     -1.13761000       1
I              -2.70740000     -4.59022000     -5.74882000      53
I               6.33160000     -4.61674000      0.49830100      53
I              -0.90079300      6.82135000      3.91985000      53
I              -7.88810000      0.64671400      0.84083800      53
H              -2.10969000     -7.31321000     -2.41816000       1
I               1.73408000      5.26480000     -5.77527000      53
C               3.78570000      6.74217000     -2.20256000       6
I              -7.07237000     -3.80204000      0.74615100      53
H               2.79971000     -1.55241000     -7.46103000       1
H               6.36450000      3.03880000      4.07983000       1
H               1.88841000      7.43310000     -2.82289000       1
H              -5.99130000     -2.44238000      5.02400000       1
H              -1.48561000     -5.98281000      5.42491000       1
H              -5.31556000      5.72364000     -2.54681000       1
P              -5.18744000     -6.38912000      0.70738900      15
H              -1.70598000      1.98802000     -7.86194000       1
P              -5.41218000      2.61364000     -5.73886000      15
P               8.05816000     -1.96083000      0.71155300      15
H              -0.64257900     -7.62736000     -3.39936000       1
I               3.83507000     -6.34619000      3.90733000      53
C               7.61074000      2.07176000     -2.87261000       6
P               3.57988000      2.53752000      7.16356000      15
I               1.09528000     -8.29244000      0.84083800      53
H              -0.68611600     -7.52447000      3.75333000       1
H              -4.08533000      7.02288000     -2.40044000       1
I               0.94712900      4.36641000      7.24793000      53
H              -0.47104800      3.28951000     -7.89948000       1
N               3.13960000      7.39669000      3.13874000       7
I               1.02247000     -4.57275000      7.24793000      53
H               7.32913000      2.87821000     -3.55108000       1
H               7.91506000      3.33159000     -1.22120000       1
H               2.84141000      6.49678000      5.02400000       1
N               2.89315000      7.67251000     -2.95497000       7
H               4.44404000      6.19174000      4.27637000       1
I              -3.35997000     -3.76388000      7.14049000      53
C              -5.12234000      6.74217000     -2.20256000       6
H              -4.46400000      6.19174000      4.27637000       1
H              -5.34579000      6.83510000     -1.13761000       1
H              -0.10335000      1.68298000     -8.60956000       1
C              -0.88228300      2.42725000     -8.42946000       6
I               8.25038000     -1.85854000     -2.49132000      53
I              -7.14771000      5.13712000      0.74615100      53
H               4.82271000      7.02288000     -2.40044000       1
I              -5.47877000     -6.52533000     -2.49088000      53
H               8.19013000      1.31180000     -3.39936000       1
N               2.77869000     -1.27390000     -8.46104000       7
I              -5.07298000     -6.34619000      3.90733000      53
H               2.94695000     -0.24832700     -8.51913000       1
C               3.66511000      6.93601000      4.45648000       6
N               8.46117000      2.64596000     -1.78651000       7
H               8.77777000      1.90899000     -1.12231000       1
H               2.39683000      8.10217000      3.25892000       1
P              -1.04285000      6.96792000     -5.72238000      15
H               8.14659000      1.41469000      3.75333000       1
H               3.88948000      7.82055000      2.54999000       1
H               1.81710000     -1.46996000     -8.80611000       1
H               3.10210000      7.61285000     -3.97016000       1
H               8.30771000      2.79349000      2.61513000       1
N               7.32608000      3.23486000      4.42490000       7
I              -0.78766000     -1.91580000     -8.97860000      53
I               8.08259000     -2.11780000      3.91985000      53
P               3.57121000     -6.32552000     -5.73886000      15
P              -5.32817000      2.53752000      7.16356000      15
H              -9.03833000      1.90899000     -1.12231000       1
H              -8.50663000      3.09822000     -2.16596000       1
H              -6.17042000      6.60916000      2.58464000       1
C               8.35791000      2.48253000      3.66111000       6
I               6.12531000      4.34894000     -5.74882000      53
I              -3.43531000      5.17527000      7.14049000      53
I              -3.54606000      8.80289000      0.71932500      53
H              -1.18321000      3.18245000      8.91578000       1
H               3.04388000      8.66236000     -2.67705000       1
I               6.35681000      0.83440400      7.11067000      53
H               7.34710000      2.95635000      5.42491000       1
I               6.20065000     -4.59022000     -5.74882000      53
H              -5.01857000      7.82055000      2.54999000       1
H               6.43984000     -5.90036000      4.07983000       1
H               7.49434000      4.26043000      4.36681000       1
I               0.94460600      9.58587000      0.84083800      53
I              -3.39539000     -9.07543000      0.71932500      53
H              -0.39570900     -5.64965000     -7.89948000       1
H              -6.10834000     -1.55241000     -7.46103000       1
C              -5.24294000      6.93601000      4.45648000       6
H              -8.47780000      2.71639000      4.08243000       1
I               5.54808000     -3.76388000      7.14049000      53
H               7.99040000     -5.60757000     -1.22120000       1
I              -7.98270000      0.66651400     -5.74545000      53
I              -7.09863000     -3.67436000     -5.77527000      53
H              -4.11715000     -1.79238000     -8.80351000       1
N              -9.35493000      2.64596000     -1.78651000       7
I               3.45986000      2.31259000     -8.96608000      53
N              -5.76845000      7.39669000      3.13874000       7
H               7.56968000     -4.67872000      4.36681000       1
H               3.04382000     -1.55219000      9.33485000       1
P              -9.75793000     -1.96083000      0.71155300      15
P               7.94053000     -1.97124000     -5.72238000      15
I               9.92799000      0.64671400      0.84083800      53
I              -7.06805000     -0.08145900      7.13712000      53
H               9.30947000      3.09822000     -2.16596000       1
I              -9.56571000     -1.85854000     -2.49132000      53
P              -5.33684000     -6.32552000     -5.73886000      15
H               4.07635000      7.79827000      4.98646000       1
H               3.19455000     -9.21596000     -2.67705000       1
I               1.00069000     -8.27265000     -5.74545000      53
P              -0.86478800      7.12240000      7.14708000      15
H               4.79090000     -1.79238000     -8.80351000       1
