200
cutoff_factor=1.20000000 nneightol=1.20000000 Lattice="28.88172000       0.00000000       0.00000000       0.00000000      27.88144000       0.00000000       0.00000000       0.00000000      27.55447000" Properties=species:S:1:pos:R:3:Z:I:1
H              -0.08473340      1.85472000      0.65137600       1
I               0.63674100     -2.09822000     -0.34836300      53
H               1.70406000      1.34981000     -0.90159300       1
H               0.26999700      1.59054000     -1.74715000       1
N               0.99172400      2.05234000     -1.15082000       7
C               0.38393600      2.65232000      0.07025360       6
H               1.17523000      3.13228000      0.65077500       1
H              -0.36187900      3.38772000     -0.24002500       1
H              -2.88331000     -1.77196000      0.87108200       1
I              -2.06432000     -0.30876900      2.83466000      53
P               0.69230400     -2.06364000      2.82173000      15
H               1.44339000      2.78013000     -1.74754000       1
I               2.42078000      0.64280100      2.71946000      53
I              -1.22407000      0.57028400     -3.54405000      53
H              -3.26129000     -1.31216000     -1.49056000       1
H              -2.66296000     -3.16192000     -0.06263290       1
P               0.64502600     -2.08812000     -3.54272000      15
N              -3.35974000     -2.47477000      0.26532600       7
H               4.18766000     -1.09991000     -0.51633700       1
C              -4.02457000     -1.81926000     -0.89577200       6
I              -3.80477000      2.46439000     -0.34838500      53
I               3.13863000     -0.06527840     -3.63709000      53
H              -4.75389000     -1.09991000     -0.51633700       1
H              -4.05579000     -2.96091000      0.87118100       1
H               1.35029000      1.69864000      4.81971000       1
C               4.91698000     -1.81926000     -0.89577200       6
H               4.42040000     -2.58957000     -1.49037000       1
P              -3.83845000      2.40850000      2.82170000      15
I              -1.24221000      4.25561000      3.01245000      53
H              -4.52115000     -2.58957000     -1.49037000       1
H              -0.23850800     -5.55300000     -0.24002500       1
I              -1.94500000     -3.87033000     -3.50226000      53
I              -1.11884000     -4.68511000      3.01245000      53
I               5.13678000      2.46439000     -0.34838500      53
P              -3.81461000      2.45598000     -3.54274000      15
H               4.88575000     -2.96091000      0.87118100       1
H               0.82772600      2.21376000     -5.34475000       1
I               3.43377000     -3.80010000      2.83452000      53
H               1.29860000     -5.80844000      0.65077500       1
H               5.68026000     -1.31216000     -1.49056000       1
I               2.44294000      4.28827000     -3.54422000      53
N               5.58180000     -2.47477000      0.26532600       7
N               1.25649000      1.79103000      5.85377000       7
P               5.10310000      2.40850000      2.82170000      15
C               0.50730700     -6.28840000      0.07025360       6
H               1.02296000      0.84754500      6.22039000       1
H               6.05824000     -1.77196000      0.87108200       1
H              -0.73236200      2.49158000      5.82671000       1
I               2.56631000     -4.65245000     -3.54422000      53
I               0.90971700     -1.85007000      6.05528000      53
H              -2.78633000      5.77879000     -0.06263290       1
H              -4.15677000     -1.68830000      4.64305000       1
I              -2.06837000      5.07039000     -3.50226000      53
H               1.56676000     -6.16058000     -1.74754000       1
P               5.12694000      2.45598000     -3.54274000      15
I               3.31040000      5.14062000      2.83452000      53
H               0.77729400      1.00313000     -6.66831000       1
C               1.00471000      2.03944000     -6.40836000       6
C               0.23141500      2.80179000      6.23668000       6
I              -5.80292000     -0.06527840     -3.63709000      53
I               0.51337000      6.84250000     -0.34836300      53
H               4.78478000     -1.68830000      4.64305000       1
H               2.19657000      2.03770000      6.22053000       1
H               0.52825600      3.76992000      5.82707000       1
H              -2.37168000     -2.18867000      6.18187000       1
H               6.27859000     -3.16192000     -0.06263290       1
N               1.11510000     -6.88838000     -1.15082000       7
I              -6.52077000      0.64280100      2.71946000      53
H               0.03863730     -7.08600000      0.65137600       1
H               3.63390000     -1.74572000      5.86519000       1
H              -4.21969000     -1.62749000     -5.52338000       1
I               0.48383300     -2.28258000     -6.79458000      53
H              -4.11568000     -0.53711200      5.86551000       1
I              -5.50778000     -3.80010000      2.83452000      53
N              -4.31025000     -1.53725000      5.65896000       7
H               2.03783000      2.28121000     -6.66803000       1
H              -4.17917000      5.97981000      0.87118100       1
N              -3.48312000      6.46594000      0.26532600       7
H              -2.21209000     -2.43313000     -6.62937000       1
H              -7.23749000      1.34981000     -0.90159300       1
I               6.87723000     -0.30876900      2.83466000      53
H               4.72186000     -1.62749000     -5.52338000       1
P               0.56893300      6.87708000      2.82173000      15
I              -3.68140000     -6.47632000     -0.34838500      53
N               4.63130000     -1.53725000      5.65896000       7
H              -0.89813800      2.72417000     -6.98471000       1
H               0.39336800     -7.35017000     -1.74715000       1
I              -4.04905000      2.18825000      6.05531000      53
H               4.82587000     -0.53711200      5.86551000       1
C              -3.40480000     -2.43045000      6.44153000       6
H               4.76238000      5.97981000      0.87118100       1
P               0.52165600      6.85260000     -3.54272000      15
N               0.09925980      2.93264000     -7.19093000       7
H               4.29703000      6.35115000     -1.49037000       1
H               0.65162700     -5.17080000      5.82707000       1
H              -3.00668000      7.16875000      0.87108200       1
H               1.82743000     -7.59090000     -0.90159300       1
H               0.18897200      2.84334000      7.32651000       1
H              -3.63222000     -3.46676000      6.18158000       1
C              -4.17725000     -1.66904000     -6.61322000       6
H              -4.64452000      6.35115000     -1.49037000       1
H               0.29383700      3.93277000     -6.98438000       1
P              -3.71508000     -6.53221000      2.82170000      15
H              -3.88041000     -0.70091200     -7.02283000       1
I               4.89250000      2.18825000      6.05531000      53
H              -5.30765000     -1.74572000      5.86519000       1
N              -3.15218000     -2.67980000     -6.99613000       7
I              -3.62232000      2.61982000     -6.79461000      53
I              -5.63115000      5.14062000      2.83452000      53
H              -7.49816000      2.78013000     -1.74754000       1
H               3.80052000     -1.97926000     -7.02319000       1
P              -3.69124000     -6.48474000     -3.54274000      15
H              -3.38571000     -3.62329000     -6.62950000       1
C              -4.14794000      7.12146000     -0.89577200       6
N              -7.94982000      2.05234000     -1.15082000       7
C               4.76430000     -1.66904000     -6.61322000       6
I               5.26015000     -6.47632000     -0.34838500      53
H              -7.76632000      3.13228000      0.65077500       1
H               6.15522000      5.77879000     -0.06263290       1
N               5.45843000      6.46594000      0.26532600       7
H              -3.38466000      7.62856000     -1.49056000       1
I               7.71748000      0.57028400     -3.54405000      53
I              -6.49861000      4.28827000     -3.54422000      53
I              -8.30481000     -2.09822000     -0.34836300      53
H               0.41720800     -5.00795000     -6.98438000       1
H              -3.58179000     -2.25613000      7.50514000       1
C               4.79361000      7.12146000     -0.89577200       6
H               0.95109700     -6.72696000     -5.34475000       1
I              -6.37524000     -4.65245000     -3.54422000      53
H               0.25274300      2.78158000     -8.20684000       1
H               5.06114000     -0.70091200     -7.02283000       1
H              -0.60899100     -6.44914000      5.82671000       1
I               6.99655000     -3.87033000     -3.50226000      53
C               0.35478500     -6.13893000      6.23668000       6
H               1.47366000     -7.24208000      4.81971000       1
P               5.22647000     -6.53221000      2.82170000      15
C               5.53675000     -2.43045000      6.44153000       6
H               4.06429000      7.84081000     -0.51633700       1
H               5.30933000     -3.46676000      6.18158000       1
H              -5.14103000     -1.97926000     -7.02319000       1
P              -8.24924000     -2.06364000      2.82173000      15
C              -8.55761000      2.65232000      0.07025360       6
H              -8.67155000      1.59054000     -1.74715000       1
I               5.31923000      2.61982000     -6.79461000      53
H              -3.05838000     -2.77220000     -8.03018000       1
P               5.25031000     -6.48474000     -3.54274000      15
H              -3.75559000      5.47396000      6.18158000       1
H               8.85682000      1.85472000      0.65137600       1
I               2.54415000     -8.29792000      2.71946000      53
H              -7.59126000      1.69864000      4.81971000       1
I              -1.10070000     -8.37043000     -3.54405000      53
H              -3.50908000      5.31743000     -6.62950000       1
H               8.57967000      3.38772000     -0.24002500       1
I               6.87318000      5.07039000     -3.50226000      53
H              -9.02628000      1.85472000      0.65137600       1
H              -4.87726000      7.84081000     -0.51633700       1
P              -8.29652000     -2.08812000     -3.54272000      15
H               6.56987000     -2.18867000      6.18187000       1
I               7.69934000      4.25561000      3.01245000      53
N               1.37986000     -7.14969000      5.85377000       7
I              -2.18769000      8.63195000      2.83466000      53
H               5.93487000      7.16875000      0.87108200       1
I               0.78634600      7.09065000      6.05528000      53
N               0.22263000     -6.00808000     -7.19093000       7
H               5.55584000     -3.62329000     -6.62950000       1
H              -0.77476700     -6.21655000     -6.98471000       1
H              -6.74498000      2.03770000      6.22053000       1
N               5.78937000     -2.67980000     -6.99613000       7
C               1.12808000     -6.90128000     -6.40836000       6
H              -2.49505000      6.75205000      6.18187000       1
H               5.35976000     -2.25613000      7.50514000       1
H               9.21155000      1.59054000     -1.74715000       1
I              -1.96657000     -0.18161500      9.30567000      53
I               0.36046200      6.65814000     -6.79458000      53
H               0.31234200     -6.09738000      7.32651000       1
P               0.71742400     -2.01390000      9.30715000      15
H               5.55689000      7.62856000     -1.49056000       1
H               2.31994000     -6.90302000      6.22053000       1
H              -2.33546000      6.50759000     -6.62937000       1
I               7.82271000     -4.68511000      3.01245000      53
H              -4.28014000      7.25241000      4.64305000       1
H              -7.64295000     -5.80844000      0.65077500       1
H               2.16120000     -6.65950000     -6.66803000       1
I               2.46366000      0.60050600      9.34763000      53
C               9.32548000      2.65232000      0.07025360       6
H               5.18596000      5.47396000      6.18158000       1
H               6.72946000     -2.43313000     -6.62937000       1
H              -7.37479000     -6.16058000     -1.74754000       1
H               4.66141000      7.25241000      4.64305000       1
I               9.57829000     -2.09822000     -0.34836300      53
C              -3.52817000      6.51027000      6.44153000       6
N              -7.68506000      1.79103000      5.85377000       7
H              -6.90372000      2.28121000     -6.66803000       1
I              -1.94095000     -9.24949000      2.83466000      53
I              -3.92568000     -6.75247000      6.05531000      53
H              -9.30343000      3.38772000     -0.24002500       1
I              -3.49895000     -6.32090000     -6.79461000      53
H               3.51053000      7.19500000      5.86519000       1
N              -3.27555000      6.26092000     -6.99613000       7
H              -8.11382000      2.21376000     -5.34475000       1
