200
cutoff_factor=1.20000000 nneightol=1.20000000 Lattice="29.07285000       0.00000000       0.00000000       0.00000000      28.31444000       0.00000000       0.00000000       0.00000000      28.42034000" Properties=species:S:1:pos:R:3:Z:I:1
H               0.50935900     -0.95306300     -1.16145000       1
I              -1.26564000      0.03625100      1.30027000      53
C               0.90768500     -1.09821000     -2.16799000       6
H               0.73898200      0.92053900     -2.67150000       1
H               0.45087000      1.81378000      2.25547000       1
N               0.40712200      0.00562365     -3.03820000       7
H               1.99930000     -1.06066000     -2.15513000       1
H              -0.62823500      0.00269364     -3.07712000       1
H               1.19013000      2.80369000      1.13885000       1
H               0.56401500     -2.04846000     -2.58193000       1
I               3.08333000     -0.87115900      1.35575000      53
P               0.51352700     -2.28741000      2.63598000      15
N               0.97537400      2.70778000      2.15520000       7
I               2.20407000      2.73713000     -1.17711000      53
P              -3.83385000      1.39092000     -0.01767510      15
H               0.78491600     -0.11386800     -4.00236000       1
H               1.88685000      2.64837000      2.64381000       1
I               0.27001200     -4.22057000      0.04631640      53
I              -3.50362000     -0.57787700     -2.50262000      53
H              -0.78950500      3.86301000      2.11887000       1
I              -2.16093000      3.51029000     -1.76729000      53
H              -3.39730000     -2.82179000     -0.94829000       1
H              -2.26861000     -4.02234000     -0.56465000       1
C               0.16921100      3.86288000      2.64235000       6
N              -3.28016000     -3.82595000     -0.70794400       7
P               4.93462000      1.39092000     -0.01767510      15
I               0.83265900     -0.41032000      5.17685000      53
H               0.02138400      3.74922000      3.71662000       1
H              -3.73200000     -3.57325000      1.33581000       1
H              -2.45491000      0.15730100      4.76002000       1
H              -3.90321000      0.06814730      3.70522000       1
H               0.72072800      4.78081000      2.42947000       1
H               3.64021000     -3.99617000      0.29301000       1
I              -2.11349000     -3.68503000      3.86812000      53
P               0.52887000      5.08789000     -2.68788000      15
I               5.26484000     -0.57787700     -2.50262000      53
C              -4.07356000     -4.18932000      0.50163700       6
H              -3.61908000     -4.36164000     -1.53403000       1
I              -4.16203000      3.30111000      2.56643000      53
I              -5.68514000     -0.87115900      1.35575000      53
C              -3.54659000      0.18330500      4.73084000       6
I              -1.23407000     -3.93360000     -4.27100000      53
H              -3.65294000      2.85610000     -3.92694000       1
H               4.86525000      0.06814730      3.70522000       1
H               5.37117000     -2.82179000     -0.94829000       1
I               4.60643000      3.30111000      2.56643000      53
I               0.90322600      3.30741000     -5.27201000      53
C               4.69490000     -4.18932000      0.50163700       6
H               5.03647000     -3.57325000      1.33581000       1
I               3.21024000     -4.36386000     -3.46217000      53
H              -5.12826000     -3.99617000      0.29301000       1
H              -3.91747000      1.11557000      5.16224000       1
I               2.34007000     -0.69422500     -6.11391000      53
H              -3.91295000     -5.24828000      0.71484900       1
I               2.26950000     -4.41196000      4.33495000      53
P               0.60603300     -6.00045000     -2.68788000      15
H              -3.71525000     -1.84954000      5.14924000       1
H              -3.64468000      1.86819000     -5.29962000       1
H               3.66252000     -0.95455200      5.53809000       1
N               5.48830000     -3.82595000     -0.70794400       7
H               3.73309000      2.76318000     -4.91076000       1
H               0.79789100     -6.30753000      2.42947000       1
P              -3.81170000     -2.29693000     -5.20900000      15
I               0.19284900      6.86776000      0.04631640      53
I              -2.04292000      0.03270360     -6.58074000      53
N              -3.99759000      2.76425000     -4.90551000       7
H               5.14939000     -4.36164000     -1.53403000       1
N              -4.06816000     -0.95348000      5.54335000       7
C               5.22187000      0.18330500      4.73084000       6
H               5.11553000      2.85610000     -3.92694000       1
H              -3.99011000      5.84006000      0.71484900       1
H               4.85100000      1.11557000      5.16224000       1
H              -6.76917000     -1.06066000     -2.15513000       1
H               4.85552000     -5.24828000      0.71484900       1
I              -1.38180000      3.43700000      6.17786000      53
I              -6.56439000      2.73713000     -1.17711000      53
H              -2.38434000      3.87503000     -5.68884000       1
N               4.70031000     -0.95348000      5.54335000       7
N               4.77087000      2.76425000     -4.90551000       7
H               5.05321000     -1.84954000      5.14924000       1
H              -2.34577000      7.06599000     -0.56465000       1
H               0.71434900     -3.83160000      6.44650000       1
P               4.95677000     -2.29693000     -5.20900000      15
H              -5.03537000      2.76318000     -4.91076000       1
H              -3.72350000     -0.86162700      6.52192000       1
H              -0.71234200     -7.22533000      2.11887000       1
H               4.77836000      5.84006000      0.71484900       1
H              -5.10594000     -0.95455200      5.53809000       1
H               5.12378000      1.86819000     -5.29962000       1
I               7.50283000      0.03625100      1.30027000      53
H               0.16911400     -3.62139000     -6.73223000       1
H               6.49985000     -4.02234000     -0.56465000       1
I               6.60753000      3.51029000     -1.76729000      53
C               0.24637400     -7.22546000      2.64235000       6
C              -3.47602000      3.90104000     -5.71802000       6
H              -3.69624000      6.72670000     -1.53403000       1
H              -6.88162000      2.64837000      2.64381000       1
I              -5.55823000     -4.36386000     -3.46217000      53
P               0.45830300      1.37016000      7.76098000      15
H               6.31356000      0.15730100      4.76002000       1
H               3.56304000      7.09217000      0.29301000       1
P               0.58409400      1.43032000     -7.81288000      15
N              -3.35733000      7.26239000     -0.70794400       7
I              -2.08377000     -7.57805000     -1.76729000      53
C              -4.15073000      6.89902000      0.50163700       6
H              -3.84690000      4.83330000     -5.28662000       1
H              -7.57834000      2.80369000      1.13885000       1
I               3.13308000      6.72448000     -3.46217000      53
I               3.06251000      3.00675000      6.98669000      53
H               0.09854700     -7.33912000      3.71662000       1
C              -7.86078000     -1.09821000     -2.16799000       6
I               2.19234000      6.67638000      4.33495000      53
H              -0.69880200     -3.71504000      7.37174000       1
H               5.04496000     -0.86162700      6.52192000       1
H               0.66841500     -2.79719000      7.77736000       1
N               0.33655500     -3.71211000      7.41066000       7
P              -3.95943000      5.07368000      5.23985000      15
C               4.61774000      6.89902000      0.50163700       6
H              -8.25911000     -0.95306300     -1.16145000       1
I              -1.31123000      7.15473000     -4.27100000      53
H               1.26729000     -8.28464000      1.13885000       1
H               0.86845800     -2.58980000     -8.01939000       1
H              -8.02948000      0.92053900     -2.67150000       1
N              -7.79309000      2.70778000      2.15520000       7
H              -3.80916000      7.51509000      1.33581000       1
I               6.65498000     -3.68503000      3.86812000      53
H               5.07223000      6.72670000     -1.53403000       1
C               0.31694100     -3.50773000     -7.80651000       6
H              -3.83264000      3.78588000     -6.74364000       1
I              -2.19065000      7.40331000      3.86812000      53
H               4.92156000      4.83330000     -5.28662000       1
H               8.14023000      0.00269364     -3.07712000       1
C               5.29244000      3.90104000     -5.71802000       6
N               1.05254000     -8.38056000      2.15520000       7
P               4.80904000      5.07368000      5.23985000      15
I               2.28124000     -8.35120000     -1.17711000      53
H              -5.20542000      7.09217000      0.29301000       1
H              -8.31759000      1.81378000      2.25547000       1
H              -8.20445000     -2.04846000     -2.58193000       1
P              -3.88226000     -6.01466000      5.23985000      15
N              -8.36134000      0.00562365     -3.03820000       7
I              -6.42839000     -0.69422500     -6.11391000      53
H              -7.98355000     -0.11386800     -4.00236000       1
P              -8.25494000     -2.28741000      2.63598000      15
I              -2.23150000     -0.20744100      8.68157000      53
I              -6.49896000     -4.41196000      4.33495000      53
H              -3.76974000     -6.25504000     -5.28662000       1
H              -3.47446000      8.26655000     -0.94829000       1
H               1.96401000     -8.43997000      2.64381000       1
H              -0.64177500     -3.50760000     -8.32999000       1
N               5.41114000      7.26239000     -0.70794400       7
H               4.95930000      7.51509000      1.33581000       1
H               7.97896000      3.86301000      2.11887000       1
I              -4.08487000     -7.78723000      2.56643000      53
H               4.93582000      3.78588000     -6.74364000       1
P               0.43636400      8.80093000      2.63598000      15
H               2.03458000     -4.72224000     -7.80505000       1
P               4.88620000     -6.01466000      5.23985000      15
H               6.38412000      3.87503000     -5.68884000       1
H               9.27782000     -0.95306300     -1.16145000       1
I               6.72555000      0.03270360     -6.58074000      53
H               0.48685200      9.03988000     -2.58193000       1
I              -5.63539000      6.72448000     -3.46217000      53
I               4.68360000     -7.78723000      2.56643000      53
I               0.98038900     -7.78093000     -5.27201000      53
H              -2.30718000     -7.21331000     -5.68884000       1
I              -7.93581000     -0.41032000      5.17685000      53
I              -8.49845000     -4.22057000      0.04631640      53
H               0.41628500      5.32215000      7.86693000       1
I              -5.70596000      3.00675000      6.98669000      53
I               7.53439000     -3.93360000     -4.27100000      53
H               0.52803300     -9.27456000      2.25547000       1
I               2.13351000     -0.98059500      9.27175000      53
H               6.42269000      7.06599000     -0.56465000       1
N               1.12310000     -4.66283000     -8.29366000       7
H               4.99873000     -6.25504000     -5.28662000       1
C               0.83711800     -4.81593000      8.28087000       6
H               9.21934000      1.81378000      2.25547000       1
N               9.17559000      0.00562365     -3.03820000       7
H              -8.04774000      4.78081000      2.42947000       1
I              -3.57419000     -4.29561000      7.94624000      53
H               0.63718600      7.25674000      6.44650000       1
I              -4.01430000     -4.06950000     -7.88242000      53
H               1.92873000     -4.77839000      8.29373000       1
H               0.49344800     -5.76619000      7.86693000       1
C              -8.59925000      3.86288000      2.64235000       6
C              -3.39886000     -7.18730000     -5.71802000       6
H              -3.57578000     -8.23224000     -3.92694000       1
H              -3.66143000      0.14448200     -9.11305000       1
H               5.29400000      8.26655000     -0.94829000       1
H              -9.39670000      0.00269364     -3.07712000       1
H               9.33248000     -2.04846000     -2.58193000       1
H               0.52143700      5.53151000     -8.19339000       1
P               9.28199000     -2.28741000      2.63598000      15
H               0.59860000     -5.55683000     -8.19339000       1
H               9.50745000      0.92053900     -2.67150000       1
I              -1.30464000     -7.65133000      6.17786000      53
I              -1.19507000      3.75398000     -9.14859000      53
I               9.03848000     -4.22057000      0.04631640      53
C               9.67615000     -1.09821000     -2.16799000       6
