200
cutoff_factor=1.20000000 nneightol=1.20000000 Lattice="28.44400000       0.00000000       0.00000000       0.00000000      28.78170000       0.00000000       0.00000000       0.00000000      27.98618000" Properties=species:S:1:pos:R:3:Z:I:1
I               0.95623200      0.36885600     -0.83088400      53
P               0.67668600     -0.13441900      2.41143000      15
H              -2.56062000     -0.14125200     -0.57404700       1
H               0.84006200      2.92619000     -0.51697300       1
H               0.53699700     -3.10256000     -0.43943400       1
I              -1.67957000     -2.18884000      1.90985000      53
I              -1.30655000      2.41420000      2.40502000      53
C              -3.61470000     -0.42815200     -0.57870900       6
H               3.50937000      0.29959500     -1.45772000       1
H               0.53207000      3.83682000      0.84742600       1
N               0.94791600      3.87547000     -0.10223900       7
P               0.41266900      0.05908210     -4.03014000      15
H              -4.02607000     -0.38800300      0.43259900       1
H              -3.73563000     -1.42845000     -1.00087000       1
C               0.38663800     -4.07034000     -0.92329900       6
H              -0.67857400     -4.30500000     -0.98349500       1
I               2.70162000     -2.57656000      2.46326000      53
H               1.96703000      4.06906000     -0.03054960       1
H               0.83599500     -4.07331000     -1.91908000       1
I              -1.49563000     -2.48680000     -3.55086000      53
N              -4.36204000      0.53658400     -1.43024000       7
H              -4.27363000      1.51272000     -1.07801000       1
I               3.13031000      1.90607000      2.91547000      53
H              -3.98621000      0.53302100     -2.39975000       1
N               4.52214000      0.53658400     -1.43024000       7
H              -0.78462200      4.68735000     -0.98349500       1
H               4.85811000     -0.38800300      0.43259900       1
H               4.61055000      1.51272000     -1.07801000       1
I              -2.25853000      1.86575000     -4.06521000      53
C               0.28059000      4.92201000     -0.92329900       6
N               1.05396000     -5.11688000     -0.10223900       7
H               0.63811800     -5.15552000      0.84742600       1
C               5.26948000     -0.42815200     -0.57870900       6
H               0.72994700      4.91903000     -1.91908000       1
H               2.07308000     -4.92329000     -0.03054960       1
I               2.97728000     -1.88268000     -4.05884000      53
H               5.14855000     -1.42845000     -1.00087000       1
H               4.89797000      0.53302100     -2.39975000       1
H              -5.37481000      0.29959500     -1.45772000       1
I               0.11731100     -0.42864000      5.60016000      53
I               2.19587000      2.70107000     -4.45335000      53
H              -2.42536000      0.36357900      5.19924000       1
H               0.43094900      5.88978000     -0.43943400       1
I              -4.36952000      4.06708000     -0.77417700      53
H               0.56844100     -4.42944000      4.10937000       1
H               0.64579300      3.15455000      5.20695000       1
I               4.51465000      4.06708000     -0.77417700      53
H               0.46239300      4.56290000      4.10937000       1
H               0.94611000     -6.06615000     -0.51697300       1
H              -3.81704000      1.22742000      4.74378000       1
P              -3.79655000      4.43941000      2.42533000      15
P              -3.69051000     -4.55293000      2.42533000      15
H               6.32355000     -0.14125200     -0.57404700       1
H              -4.26728000     -1.13812000      4.71355000       1
N              -3.39358000      0.62281400      5.47519000       7
I              -4.26347000     -4.92526000     -0.77417700      53
C               0.82523400      4.22494000      5.08263000       6
H               4.61689000     -1.13812000      4.71355000       1
I              -5.75387000      1.90607000      2.91547000      53
H               0.31137600     -3.00701000      6.05391000       1
I               4.62070000     -4.92526000     -0.77417700      53
H               3.65015000     -0.28367800      5.96128000       1
C               0.93128200     -4.76741000      5.08263000       6
H               5.06714000      1.22742000      4.74378000       1
C              -4.23112000     -0.59573900      5.66102000       6
H               1.88888000      4.44836000      5.19249000       1
I              -1.20050000     -6.57814000      2.40502000      53
I              -6.18256000     -2.57656000      2.46326000      53
P              -3.98839000     -4.42690000     -3.99167000      15
P               5.08762000      4.43941000      2.42533000      15
H               1.99493000     -4.54398000      5.19249000       1
H               0.53858100     -4.31275000     -5.73938000       1
I               0.14868800     -0.40419300     -7.22305000      53
H              -3.31469000      1.15715000      6.36396000       1
I              -1.78562000      6.80350000      1.90985000      53
P              -4.09444000      4.56544000     -3.99167000      15
P               5.19367000     -4.55293000      2.42533000      15
H              -3.28332000      1.18160000     -6.45925000       1
I               2.59557000      6.41578000      2.46326000      53
C               4.65306000     -0.59573900      5.66102000       6
N               0.18265500     -4.03604000      6.14518000       7
H               0.34275200     -2.98256000     -6.76930000       1
I              -5.90689000     -1.88268000     -4.05884000      53
H               0.43253200      4.67959000     -5.73938000       1
H              -0.84229200     -4.20983000      6.07091000       1
H              -3.74258000     -1.18837000     -6.38546000       1
H              -3.77396000     -1.21282000      6.43775000       1
I              -1.60168000      6.50554000     -3.55086000      53
P               4.89579000     -4.42690000     -3.99167000      15
P               4.78974000      4.56544000     -3.99167000      15
I               7.20461000     -2.18884000      1.90985000      53
N               5.49059000      0.62281400      5.47519000       7
H              -0.94834000      4.78252000      6.07091000       1
H               3.68153000     -0.25923100     -6.86193000       1
N               0.21403100     -4.01159000     -6.67803000       7
H               0.75184200     -5.83780000      5.20695000       1
I              -3.40189000     -4.31286000      5.63765000      53
N               0.07660680      4.95630000      6.14518000       7
H              -5.23403000     -0.28367800      5.96128000       1
I              -7.92795000      0.36885600     -0.83088400      53
H              -0.81091500     -4.18538000     -6.75230000       1
I               6.62565000      1.86575000     -4.06521000      53
H              -2.39398000      0.38802600     -7.62397000       1
H              -6.91715000      4.06906000     -0.03054960       1
I               2.30192000     -6.29128000     -4.45335000      53
N              -3.36221000      0.64726100     -7.34802000       7
I              -3.50794000      4.67949000      5.63765000      53
H               0.67717000      3.17899000     -7.61626000       1
H               5.14159000     -1.18837000     -6.38546000       1
H               6.45882000      0.36357900      5.19924000       1
H               5.11022000     -1.21282000      6.43775000       1
I               7.57763000      2.41420000      2.40502000      53
I               3.23636000     -7.08627000      2.91547000      53
H               0.50720400     -4.33720000      7.08383000       1
C              -4.19974000     -0.57129200     -7.16219000       6
N               0.10798300      4.98075000     -6.67803000       7
H              -0.91696400      4.80697000     -6.75230000       1
H              -6.81110000     -4.92329000     -0.03054960       1
I              -6.68830000      2.70107000     -4.45335000      53
I              -2.15248000     -7.12660000     -4.06521000      53
H               0.40115600      4.65514000      7.08383000       1
H               0.20532800      5.98534000      6.05391000       1
H               5.56949000      1.15715000      6.36396000       1
H              -3.84168000      7.56390000     -1.00087000       1
P              -8.20749000     -0.13441900      2.41143000      15
I               7.38855000     -2.48680000     -3.55086000      53
H              -8.04412000      2.92619000     -0.51697300       1
C               4.68443000     -0.57129200     -7.16219000       6
H              -5.20265000     -0.25923100     -6.86193000       1
H              -4.16758000     -7.47962000     -1.07801000       1
H               5.60086000      1.18160000     -6.45925000       1
I               2.87124000      7.10967000     -4.05884000      53
I               1.06228000     -8.62349000     -0.83088400      53
P               0.38129200      0.03463510      8.79307000      15
N              -7.93626000      3.87547000     -0.10223900       7
C               0.85661000      4.24938000     -7.74058000       6
H               4.71659000     -7.47962000     -1.07801000       1
H              -8.34718000     -3.10256000     -0.43943400       1
I               5.48229000     -4.31286000      5.63765000      53
H              -3.78566000      1.25187000     -8.07943000       1
I              -3.37051000     -4.28841000     -7.18556000      53
I               2.16450000      2.67662000      8.36986000      53
H               1.92026000      4.47281000     -7.63072000       1
H               0.23670400      6.00978000     -6.76930000       1
I               5.37624000      4.67949000      5.63765000      53
H               2.02630000     -4.51953000     -7.63072000       1
C               0.96265800     -4.74296000     -7.74058000       6
H               5.04250000      7.56390000     -1.00087000       1
P               0.57063800      8.85793000      2.41143000      15
N               5.52197000      0.64726100     -7.34802000       7
H              -4.23591000     -1.11367000     -8.10966000       1
H              -8.04818000     -4.07331000     -1.91908000       1
H              -8.35211000      3.83682000      0.84742600       1
I              -2.28991000      1.84130000      8.75800000      53
H              -2.66667000      8.85109000     -0.57404700       1
I              -3.47656000      4.70394000     -7.18556000      53
I              -6.28861000      6.41578000      2.46326000      53
H               8.20560000     -4.30500000     -0.98349500       1
N              -7.83021000     -5.11688000     -0.10223900       7
C              -3.72075000      8.56419000     -0.57870900       6
P              -8.47151000      0.05908210     -4.03014000      15
H               8.09956000      4.68735000     -0.98349500       1
H               4.64827000     -1.11367000     -8.10966000       1
I               0.85018400      9.36120000     -0.83088400      53
I               2.94591000     -1.90712000      8.76437000      53
C              -8.49754000     -4.07034000     -0.92329900       6
P               0.78273400     -9.12676000      2.41143000      15
H              -2.45457000     -9.13360000     -0.57404700       1
I              -5.64782000     -7.08627000      2.91547000      53
H               3.61542000     -8.69275000     -1.45772000       1
H              -4.13212000      8.60434000      0.43259900       1
N              -4.25599000     -8.45576000     -1.43024000       7
H              -3.88016000     -8.45932000     -2.39975000       1
H               0.78321800     -5.81335000     -7.61626000       1
H               5.09852000      1.25187000     -8.07943000       1
H              -8.15423000      4.91903000     -1.91908000       1
I              -1.52700000     -2.51125000      9.27235000      53
N               4.62819000     -8.45576000     -1.43024000       7
H              -6.88925000     -4.54398000      5.19249000       1
H              -8.24606000     -5.15552000      0.84742600       1
H              -6.99530000      4.44836000      5.19249000       1
H               0.59981800     -4.40499000     -8.71383000       1
P               0.51871700     -8.93326000     -4.03014000      15
H              -3.71099000     -7.76493000      4.74378000       1
H               4.75206000      8.60434000      0.43259900       1
H               0.49377000      4.58735000     -8.71383000       1
P               9.56086000     -0.13441900      2.41143000      15
I               9.84041000      0.36885600     -0.83088400      53
P               0.30662100      9.05143000     -4.03014000      15
H               9.42117000     -3.10256000     -0.43943400       1
C              -8.60359000      4.92201000     -0.92329900       6
H               3.40332000      9.29194000     -1.45772000       1
H              -7.93807000     -6.06615000     -0.51697300       1
I               7.09856000      6.80350000      1.90985000      53
C               5.16343000      8.56419000     -0.57870900       6
H               6.49020000      0.38802600     -7.62397000       1
I               5.51367000     -4.28841000     -7.18556000      53
C              -3.50865000     -9.42050000     -0.57870900       6
H               5.00401000     -8.45932000     -2.39975000       1
P               9.29685000      0.05908210     -4.03014000      15
