200
cutoff_factor=1.20000000 nneightol=1.20000000 Lattice="28.99161000       0.00000000       0.00000000       0.00000000      28.37966000       0.00000000       0.00000000       0.00000000      28.33174000" Properties=species:S:1:pos:R:3:Z:I:1
H               1.40725000      0.98755400     -1.18905000       1
I               2.36191000     -1.00082000      0.12562400      53
H              -0.68253100      2.26723000     -1.19364000       1
I              -2.11641000     -1.65850000     -0.23140200      53
H               0.40103800      2.73498000      0.15928700       1
N               1.37841000      1.96858000     -1.54282000       7
C               0.26317100      2.74255000     -0.92377400       6
H               0.82279200     -1.68348000      2.59293000       1
H              -0.41647100     -0.59378700      3.29647000       1
I              -1.40893000      1.95496000      2.43198000      53
P               0.52763600     -3.17587000     -1.29088000      15
H               1.33250000      1.95848000     -2.58180000       1
H               2.30703000      2.36717000     -1.30172000       1
C               0.07407840     -1.56422000      3.37816000       6
H               0.30140500      3.76527000     -1.30408000       1
H              -0.66261700     -2.36935000      3.32825000       1
I               0.42918600     -1.33402000     -3.94120000      53
H              -3.15184000     -0.97291800     -2.57565000       1
P              -3.98524000      0.47541600      1.33606000      15
H              -2.15710000     -1.28987000     -3.86348000       1
I              -4.00343000      2.33377000     -1.32818000      53
N              -3.10544000     -0.94171900     -3.61545000       7
I               3.11373000      2.61540000      2.83860000      53
H              -3.12943000      0.04665380     -3.93822000       1
N               0.76289600     -1.63408000      4.70239000       7
H               1.47541000     -0.89702600      4.80365000       1
P               4.96878000      0.47541600      1.33606000      15
I               0.64129600     -4.99713000      1.33936000      53
H               1.22912000     -2.55806000      4.83549000       1
P               0.45350900      4.03491000      3.89619000      15
I               4.95059000      2.33377000     -1.32818000      53
H               3.80760000     -1.35252000     -3.96521000       1
H               0.08235100     -1.54110000      5.48866000       1
H              -2.74931000     -4.93995000      1.14233000       1
H              -4.01218000     -4.20100000      0.10292700       1
I              -4.10324000     -1.55138000      3.84939000      53
I               2.26603000      2.66106000     -4.97134000      53
H               3.28767000     -4.82441000      1.76973000       1
I               3.06218000     -4.71985000     -2.47953000      53
I              -1.37142000     -5.25414000     -2.90487000      53
I               0.64866300      5.99943000      1.33936000      53
C              -4.17537000     -1.75941000     -4.25631000       6
I              -2.20776000      2.01395000     -5.46686000      53
H              -4.07201000     -2.79030000     -3.91193000       1
C              -3.79436000     -4.98855000      0.82791500       6
I               4.85078000     -1.55138000      3.84939000      53
H              -4.46816000     -3.85643000      2.46901000       1
H               4.48586000     -3.85643000      2.46901000       1
H               5.80218000     -0.97291800     -2.57565000       1
H              -4.01462000      5.02684000      0.40545600       1
H               4.94184000     -4.20100000      0.10292700       1
I              -1.36406000      5.74242000     -2.90487000      53
P               0.44567300      0.48582300     -6.58480000      15
H              -5.14642000     -1.35252000     -3.96521000       1
C               4.77865000     -1.75941000     -4.25631000       6
I              -6.59211000     -1.00082000      0.12562400      53
N               4.29464000     -4.77870000      2.02726000       7
H              -2.74195000      6.05661000      1.14233000       1
H              -4.03784000      1.84297000      5.14181000       1
H               4.88201000     -2.79030000     -3.91193000       1
H              -4.04567000     -1.70612000     -5.33918000       1
I               0.43702200      2.21507000      6.53979000      53
N               5.84858000     -0.94171900     -3.61545000       7
P              -3.94827000      4.19788000     -3.91014000      15
N              -4.65938000     -4.77870000      2.02726000       7
I              -5.84029000      2.61540000      2.83860000      53
H               5.82459000      0.04665380     -3.93822000       1
I               6.83761000     -1.65850000     -0.23140200      53
H               4.93940000      5.02684000      0.40545600       1
H               0.07451520     -5.09019000     -4.99233000       1
C              -3.78700000      6.00801000      0.82791500       6
H              -6.64699000      2.36717000     -1.30172000       1
H              -4.02199000     -5.96972000      0.40545600       1
H               3.29503000      6.17215000      1.76973000       1
C               5.15965000     -4.98855000      0.82791500       6
H              -2.14926000      2.25922000      6.61751000       1
H               4.91618000      1.84297000      5.14181000       1
H               0.29403900     -7.23129000     -1.30408000       1
H               1.46757000     -4.44612000     -5.67734000       1
I               3.06954000      6.27671000     -2.47953000      53
H               4.90835000     -1.70612000     -5.33918000       1
H               1.22865000      4.88942000     -5.64550000       1
H              -4.47467000      5.47783000      2.73260000       1
H               4.47935000      5.47783000      2.73260000       1
H               4.47199000     -5.51873000      2.73260000       1
P               5.00575000      4.19788000     -3.91014000      15
H              -4.48203000     -5.51873000      2.73260000       1
I               2.26650000     -4.78641000      5.50965000      53
H              -5.66635000     -4.82441000      1.76973000       1
C              -4.16753000      1.78968000      6.22468000       6
H              -7.54677000      0.98755400     -1.18905000       1
I              -2.20729000     -5.43352000      5.01413000      53
H               0.08188190      5.90637000     -4.99233000       1
H               4.93203000     -5.96972000      0.40545600       1
H              -4.06417000      0.75879100      6.56906000       1
N               0.75506000     -5.18317000     -5.77860000       7
I              -2.19992000      5.56304000      5.01413000      53
N               4.30201000      6.21786000      2.02726000       7
H               3.81544000      2.19657000      6.51578000       1
I              -1.36359000     -1.70505000      7.57612000      53
H              -4.00481000      6.79556000      0.10292700       1
H               6.79692000     -1.28987000     -3.86348000       1
P               0.53500300      7.82069000     -1.29088000      15
I              -5.89184000     -4.71985000     -2.47953000      53
C               5.16702000      6.00801000      0.82791500       6
N              -3.09760000      2.60737000      6.86554000       7
N              -7.57561000      1.96858000     -1.54282000       7
P               0.44614200     -6.96165000      3.89619000      15
H               6.20471000     -4.93995000      1.14233000       1
N              -4.65201000      6.21786000      2.02726000       7
C               4.78649000      1.78968000      6.22468000       6
H              -3.12159000      3.59574000      6.54277000       1
I               7.54509000      1.95496000      2.43198000      53
H               4.88985000      0.75879100      6.56906000       1
N               0.76242700      5.81339000     -5.77860000       7
H               0.39367100     -8.26159000      0.15928700       1
H              -7.62152000      1.95848000     -2.58180000       1
I               3.10589000     -0.93369400     -7.64238000      53
H              -0.42430700     -4.14288000     -7.18452000       1
C               0.25580400     -8.25401000     -0.92377400       6
P              -3.94780000     -3.24959000      6.57085000      15
I              -1.41677000     -1.59413000     -8.04901000      53
H               1.22129000     -6.10715000     -5.64550000       1
H               4.94921000      6.79556000      0.10292700       1
H              -5.65899000      6.17215000      1.76973000       1
H              -5.13858000      2.19657000      6.51578000       1
I               2.27387000      6.21015000      5.50965000      53
I               3.07001000     -1.17076000      8.00146000      53
H               8.27149000      2.26723000     -1.19364000       1
H              -8.13123000     -1.68348000      2.59293000       1
I              -6.68799000      2.66106000     -4.97134000      53
H               6.21207000      6.05661000      1.14233000       1
C               0.06624260     -5.11331000     -7.10283000       6
H              -4.46079000      7.14013000      2.46901000       1
P              -3.95564000     -6.79868000     -3.91014000      15
H               4.49323000      7.14013000      2.46901000       1
H               1.47494000      6.55045000     -5.67734000       1
H              -0.66308600      5.07812000     -7.15274000       1
H              -0.68989800     -8.72934000     -1.19364000       1
P               5.00622000     -3.24959000      6.57085000      15
H              -3.14400000      2.57617000      7.90534000       1
I               6.74626000      2.01395000     -5.46686000      53
H              -7.47861000     -0.89702600      4.80365000       1
I              -5.88448000      6.27671000     -2.47953000      53
H              -8.55298000      2.73498000      0.15928700       1
H               2.29966000     -8.62939000     -1.30172000       1
P              -8.42638000     -3.17587000     -1.29088000      15
H               4.47152000      1.92874000     -7.74839000       1
H              -4.48250000      1.92874000     -7.74839000       1
C              -8.69085000      2.74255000     -0.92377400       6
H               8.53755000     -0.59378700      3.29647000       1
P               0.53547200      0.37321700      9.19011000      15
C               0.07360920      5.88325000     -7.10283000       6
H               8.29140000     -2.36935000      3.32825000       1
N               1.37105000     -9.02798000     -1.54282000       7
H              -0.65525100      8.62721000      3.32825000       1
P               4.99838000     -6.79868000     -3.91014000      15
H              -0.67045300     -5.91845000     -7.15274000       1
I              -4.11108000     -5.10047000     -6.63160000      53
I               3.10636000     -8.38117000      2.83860000      53
N               5.85642000      2.60737000      6.86554000       7
H              -7.72490000     -2.55806000      4.83549000       1
I              -1.41630000     -9.04160000      2.43198000      53
H               5.83243000      3.59574000      6.54277000       1
I               0.64082700      2.45034000     -9.14163000      53
I              -8.52483000     -1.33402000     -3.94120000      53
H               1.32513000     -9.03808000     -2.58180000       1
H               0.81495600     -5.23257000     -7.88806000       1
H              -8.65261000      3.76527000     -1.30408000       1
I              -2.10904000      9.33806000     -0.23140200      53
N              -8.19112000     -1.63408000      4.70239000       7
C              -8.87994000     -1.56422000      3.37816000       6
I              -4.01080000     -8.66280000     -1.32818000      53
C               9.21719000      2.74255000     -0.92377400       6
I               4.84294000     -5.10047000     -6.63160000      53
I              -5.84813000     -0.93369400     -7.64238000      53
I               7.58260000     -5.25414000     -2.90487000      53
H               3.28720000      2.62306000     -8.71126000       1
H               0.83015900      9.31309000      2.59293000       1
H               1.33297000     -5.48899000      7.89919000       1
H               1.34033000      5.50758000      7.89919000       1
H               9.35506000      2.73498000      0.15928700       1
H               6.80476000      2.25922000      6.61751000       1
C               9.02810000     -1.56422000      3.37816000       6
I              -4.10371000      5.89609000     -6.63160000      53
I              -8.31272000     -4.99713000      1.33936000      53
H               1.23649000      8.43851000      4.83549000       1
H               0.82232300      5.76400000     -7.88806000       1
N               4.29417000      2.66877000     -8.45373000       7
H              -4.46862000      3.59104000     -8.01198000       1
H               4.48540000      3.59104000     -8.01198000       1
H               0.30187400     -3.68220000      9.17691000       1
I              -6.68752000     -4.78641000      5.50965000      53
H              -0.41694100      6.85368000     -7.18452000       1
I               7.58996000      5.74242000     -2.90487000      53
H              -9.37049000     -0.59378700      3.29647000       1
H              -4.06464000      8.20626000     -3.91193000       1
I               2.25867000     -8.33550000     -4.97134000      53
H              -9.63655000      2.26723000     -1.19364000       1
I              -5.88401000     -1.17076000      8.00146000      53
