200
cutoff_factor=1.20000000 nneightol=1.20000000 Lattice="29.14096000       0.00000000       0.00000000       0.00000000      29.29030000       0.00000000       0.00000000       0.00000000      28.29126000" Properties=species:S:1:pos:R:3:Z:I:1
H               0.55814700     -1.93528000     -0.50763300       1
H              -1.65579000     -1.12642000     -1.09674000       1
I               1.90223000      1.65004000     -0.14235500      53
H              -0.60768600     -0.85625700     -2.35100000       1
N              -1.06821000     -1.61108000     -1.80660000       7
I              -2.50629000      1.01722000      0.17317100      53
C              -0.06847990     -2.52314000     -1.18118000       6
H              -0.05660710      1.85412000      2.44464000       1
H               0.13996000      0.31081600      3.06061000       1
I               1.20080000     -1.97052000      2.42666000      53
H              -0.60214200     -3.30037000     -0.62965500       1
P              -0.61102400      3.25554000     -1.31080000      15
N               0.12168500      1.32340000      3.31286000       7
H               0.53766300     -2.96255000     -1.97564000       1
H              -1.67794000     -2.10936000     -2.48894000       1
P               3.86547000     -0.41015400      1.30958000      15
H               1.07867000      1.54818000      3.65166000       1
I              -0.71295100      1.30173000     -3.88075000      53
H               3.60918000      1.05295000     -2.58062000       1
H              -1.89185000      1.38158000      3.94539000       1
I               3.85050000     -2.36142000     -1.24639000      53
C              -0.90674800      1.61694000      4.35459000       6
H               2.60691000      1.42697000     -4.02255000       1
I              -3.30187000     -2.58785000      2.85528000      53
C               3.54407000      0.99123500     -3.66880000       6
I              -0.73200000      5.02658000      1.32781000      53
H               2.69601000      4.49521000      0.70069100       1
P              -5.12209000     -0.41015400      1.30958000      15
H              -0.69814800      0.99885900      5.23070000       1
H              -3.38663000      1.39433000     -3.95854000       1
H              -0.84107300      2.67610000      4.61105000       1
H               3.63282000     -0.04640530     -3.99679000       1
I               3.74762000      1.38990000      3.94551000      53
P              -0.64693600     -4.13527000      3.89546000      15
I              -5.13707000     -2.36142000     -1.24639000      53
H               3.86827000      4.11790000      2.00733000       1
H               3.96490000     -4.49714000      0.24459000       1
H              -5.37839000      1.05295000     -2.58062000       1
I               1.90424000     -2.07805000     -5.40467000      53
I              -2.57022000     -2.56432000     -4.91339000      53
C               3.35729000      4.91454000      1.46187000       6
I               1.25829000      5.31290000     -2.80112000      53
I              -0.71917600     -6.00679000      1.32781000      53
I              -3.27351000      4.71195000     -2.42832000      53
N              -4.30920000      1.76668000     -4.25202000       7
H              -3.95137000     -4.82757000      1.46587000       1
H              -4.32701000      2.76094000     -3.94611000       1
I               1.27111000     -5.72047000     -2.80112000      53
H               2.80569000     -5.48479000      2.14886000       1
I               6.48128000      1.01722000      0.17317100      53
N               4.67837000      1.76668000     -4.25202000       7
H               2.79286000      5.54859000      2.14886000       1
H              -4.04324000      5.21307000      0.09467910       1
P              -0.60570800     -0.54158800     -6.56948000      15
C              -5.44350000      0.99123500     -3.66880000       6
H              -5.35474000     -0.04640530     -3.99679000       1
H               4.66056000      2.76094000     -3.94611000       1
I              -5.23995000      1.38990000      3.94551000      53
H              -5.02267000     -4.49714000      0.24459000       1
I               5.68570000     -2.58785000      2.85528000      53
H              -5.11929000      4.11790000      2.00733000       1
P               3.81450000     -4.14739000     -3.95309000      15
N               4.39595000     -5.27642000      0.78102100       7
H              -0.65692000      4.59255000     -5.23424000       1
H               5.60094000      1.39433000     -3.95854000       1
I              -0.75418000     -2.29195000      6.58419000      53
H              -4.35257000     -1.86647000      5.17244000       1
N              -4.59161000     -5.27642000      0.78102100       7
H              -4.31134000      1.72722000     -5.29249000       1
H              -4.03042000     -5.82031000      0.09467910       1
H               2.70884000     -6.53817000      0.70069100       1
H               5.03620000     -4.82757000      1.46587000       1
C               3.37011000     -6.11884000      1.46187000       6
H               4.94433000      5.21307000      0.09467910       1
H               4.63500000     -1.86647000      5.17244000       1
H               2.56569000     -2.16671000      6.44239000       1
H               4.67622000      1.72722000     -5.29249000       1
I              -7.08534000      1.65004000     -0.14235500      53
N               4.38313000      5.75696000      0.78102100       7
N              -4.60444000      5.75696000      0.78102100       7
H               7.33178000     -1.12642000     -1.09674000       1
H              -3.96419000      6.20580000      1.46587000       1
I              -3.26069000     -6.32143000     -2.42832000      53
H              -0.78702100     -4.76359000     -5.85389000       1
I               1.85019000      5.36164000      5.06027000      53
C              -5.63028000      4.91454000      1.46187000       6
H               3.95207000      6.53624000      0.24459000       1
H               4.95715000     -5.82031000      0.09467910       1
H              -3.42786000     -2.19936000      6.50640000       1
H              -6.38065000      1.42697000     -4.02255000       1
P              -5.17306000     -4.14739000     -3.95309000      15
H              -6.29155000      4.49521000      0.70069100       1
H              -0.61496600      7.73301000     -0.62965500       1
I               5.71406000      4.71195000     -2.42832000      53
N              -4.35043000     -1.82701000      6.21292000       7
I               1.86301000     -5.67174000      5.06027000      53
I              -2.62428000      4.87538000      5.55155000      53
H              -4.36823000     -0.83274200      6.51882000       1
P              -0.59820000     -7.77784000     -1.31080000      15
I               1.21706000      1.71922000      7.66382000      53
P              -0.65976000      6.89810000      3.89546000      15
N               4.63714000     -1.82701000      6.21292000       7
H               7.30963000     -2.10936000     -2.48894000       1
H               4.61933000     -0.83274200      6.51882000       1
C               3.50284000     -2.60245000      6.79614000       6
C              -0.86552000      5.21063000     -6.11034000       6
H               5.02338000      6.20580000      1.46587000       1
H               3.88110000     -6.91547000      2.00733000       1
P               3.76045000      3.29230000      6.51184000      15
H               7.09571000      1.38158000      3.94539000       1
H               3.59159000     -3.64009000      6.46815000       1
H              -5.03550000      6.53624000      0.24459000       1
N               7.91936000     -1.61108000     -1.80660000       7
I               1.24203000      1.62317000     -8.03828000      53
H              -0.64409600     -6.44083000     -5.23424000       1
H               0.52483800      8.07083000     -1.97564000       1
I              -3.26064000      1.00583000     -7.60966000      53
H               0.18118800      3.90450000     -7.40433000       1
I              -7.78677000     -1.97052000      2.42666000      53
H              -1.85063000      4.97527000     -6.51954000       1
C              -5.61746000     -6.11884000      1.46187000       6
I               6.41734000     -2.56432000     -4.91339000      53
C              -0.85269600     -5.82275000     -6.11034000       6
H              -6.18188000     -5.48479000      2.14886000       1
H              -6.19470000      5.54859000      2.14886000       1
C              -0.08130400      8.51024000     -1.18118000       6
H               1.11990000      5.14187000     -6.81328000       1
H              -0.79984500      6.26979000     -5.85389000       1
H              -8.42942000     -1.93528000     -0.50763300       1
N               0.16291400      4.91708000     -7.15207000       7
I              -2.61145000     -6.15800000      5.55155000      53
H               8.37988000     -0.85625700     -2.35100000       1
I              -3.31474000      1.11826000      8.03662000      53
P               3.80168000      6.88599000     -3.95309000      15
H              -5.10647000     -6.91547000      2.00733000       1
H               5.55971000     -2.19936000      6.50640000       1
H              -7.90890000      1.54818000      3.65166000       1
I               5.72688000     -6.32143000     -2.42832000      53
P              -5.22712000      3.29230000      6.51184000      15
H               2.84692000     -1.89110000     -8.31608000       1
H               3.56795000     -2.54074000      7.88432000       1
H               8.38542000     -3.30037000     -0.62965500       1
I               3.78885000      4.98358000     -6.51943000      53
H               1.13272000     -5.89151000     -6.81328000       1
P               8.37654000      3.25554000     -1.31080000      15
H              -1.83780000     -6.05811000     -6.51954000       1
H              -6.27873000     -6.53817000      0.70069100       1
C              -5.48473000     -2.60245000      6.79614000       6
H               0.54532300      9.09810000     -0.50763300       1
I              -7.08333000     -2.07805000     -5.40467000      53
H              -8.44990000     -2.96255000     -1.97564000       1
H              -5.39597000     -3.64009000      6.46815000       1
P              -0.65225200     -0.33815000      9.15414000      15
I               8.27462000      1.30173000     -3.88075000      53
H              -0.64891400     -4.44994000      8.11394000       1
C               8.08082000      1.61694000      4.35459000       6
C               8.91909000     -2.52314000     -1.18118000       6
H              -6.42188000     -2.16671000      6.44239000       1
H              -8.84761000      0.31081600      3.06061000       1
N               0.17573800     -6.11630000     -7.15207000       7
H              -1.69077000      8.92402000     -2.48894000       1
H               8.93096000      1.85412000      2.44464000       1
I               1.18797000      9.06286000      2.42666000      53
I              -0.67794700     -2.41311000     -9.13712000      53
C              -9.05605000     -2.52314000     -1.18118000       6
P              -5.18589000      6.88599000     -3.95309000      15
H              -0.04378300     -9.17926000      2.44464000       1
I              -3.31469000      8.44553000      2.85528000      53
H              -9.04417000      1.85412000      2.44464000       1
N              -8.86588000      1.32340000      3.31286000       7
I               3.83767000      8.67195000     -1.24639000      53
I               5.72693000      1.00583000     -7.60966000      53
I               1.91505000     -9.38334000     -0.14235500      53
H              -0.82824900     -8.35728000      4.61105000       1
H               0.48361000      4.47715000      8.48930000       1
H               9.12753000      0.31081600      3.06061000       1
N              -1.08103000      9.42229000     -1.80660000       7
I               3.80167000     -6.04979000     -6.51943000      53
H              -0.01537880      5.44780000     -8.02030000       1
I              -5.19872000      4.98358000     -6.51943000      53
H               8.14649000      2.67610000      4.61105000       1
H              -1.73199000      5.33034000      7.97600000       1
I               6.36329000      4.87538000      5.55155000      53
H               9.54571000     -1.93528000     -0.50763300       1
I               8.25557000      5.02658000      1.32781000      53
H              -0.00255467     -5.58558000     -8.02030000       1
N               9.10925000      1.32340000      3.31286000       7
I              -7.72928000      5.31290000     -2.80112000      53
H               8.28942000      0.99885900      5.23070000       1
H              -3.91014000     -1.23389000     -8.99907000       1
H               3.92233000     -3.32179000     -8.45761000       1
H              -5.41961000     -2.54074000      7.88432000       1
I               5.67283000      1.11826000      8.03662000      53
H              -9.59525000     -0.85625700     -2.35100000       1
C               3.41134000     -2.52516000     -9.00307000       6
H              -1.71917000     -5.70304000      7.97600000       1
I              -7.71645000     -5.72047000     -2.80112000      53
P               8.34063000     -4.13527000      3.89546000      15
H              -1.66861000      9.90696000     -1.09674000       1
I              -2.58305000      8.46906000     -4.91339000      53
