200
cutoff_factor=1.20000000 nneightol=1.20000000 Lattice="28.35172000       0.00000000       0.00000000       0.00000000      29.04403000       0.00000000       0.00000000       0.00000000      29.49195000" Properties=species:S:1:pos:R:3:Z:I:1
I              -0.15387600     -1.48107000     -0.54683000      53
H              -1.80809000      0.31204700      1.05335000       1
P               2.25368000      0.59056500     -0.80780700      15
H              -0.99156200      1.50038000      2.12315000       1
C              -1.95307000      1.09823000      1.79585000       6
I               0.23389600      3.03750000     -0.61357500      53
H              -1.55413000     -0.41148900     -2.94310000       1
H              -2.58133000      1.89313000      1.38838000       1
I               2.80368000      0.45119400      2.33791000      53
H               1.03625000     -3.04306000      2.13361000       1
H               2.61615000     -2.63386000      1.38649000       1
H              -2.06366000     -0.22596600      3.43243000       1
N              -2.64676000      0.50811700      2.97602000       7
C              -1.78802000      0.03540240     -3.91094000       6
H              -1.13558000      0.88865100     -4.10709000       1
C               1.99591000     -3.43675000      1.79084000       6
H              -3.57315000      0.12558200      2.69978000       1
I               1.88738000      0.65095500     -4.08218000      53
P              -2.22892000     -3.90006000     -0.85124700      15
H               1.84585000     -4.21436000      1.04033000       1
H              -3.33023000      1.22863000     -3.11986000       1
H              -2.84063000      1.22792000      3.70107000       1
I               4.37248000     -1.78621000     -1.24908000      53
N              -3.19477000      0.52169200     -3.87661000       7
H              -1.69722000     -0.70701400     -4.70677000       1
I              -4.60949000     -1.78621000     -1.24908000      53
I              -4.27033000      2.66681000     -1.25942000      53
H               1.86765000      4.80663000      1.04033000       1
I              -0.42072500     -1.31362000      5.08881000      53
H              -3.84130000     -0.25631900     -3.65750000       1
H               2.57699000     -3.99108000     -2.61112000       1
H               1.75368000      3.22628000     -4.00333000       1
I              -2.75718000     -4.10896000      2.33157000      53
H               2.48444000     -2.90056000     -4.03378000       1
I               4.71164000      2.66681000     -1.25942000      53
P              -2.20712000      5.12093000     -0.85124700      15
N               2.70452000     -4.03811000      2.95586000       7
H               2.90442000     -3.32501000      3.68603000       1
H               2.14930000      4.24305000      3.40808000       1
P               2.19572000      0.46641700      5.45539000      15
I              -1.78262000     -3.88793000     -4.08399000      53
H              -3.47303000      0.96536300     -4.77837000       1
C               2.65870000     -3.92551000     -3.69851000       6
I               0.21209400     -5.98349000     -0.61357500      53
H               5.40882000      0.12558200      2.69978000       1
H               0.65678700     -4.50820000     -4.01627000       1
H               0.67858900      4.51279000     -4.01627000       1
I              -2.73537000      4.91202000      2.33157000      53
I               0.51193500      3.21833000      5.14493000      53
C               2.01772000      5.58424000      1.79084000       6
H               2.59879000      5.02990000     -2.61112000       1
N               1.63869000      4.21711000     -4.30031000       7
H               2.12750000     -4.77793000      3.40808000       1
H               3.63005000     -4.41542000      2.66635000       1
H               5.14067000     -0.25631900     -3.65750000       1
N               2.72633000      4.98288000      2.95586000       7
H               1.05805000      5.97793000      2.13361000       1
H               3.65186000      4.60557000      2.66635000       1
H               5.65175000      1.22863000     -3.11986000       1
I              -6.17830000      0.45119400      2.33791000      53
N               1.61689000     -4.80388000     -4.30031000       7
I              -1.76081000      5.13306000     -4.08399000      53
P              -6.72830000      0.59056500     -0.80780700      15
H               6.40064000      1.89313000      1.38838000       1
C               2.68050000      5.09547000     -3.69851000       6
H               3.63966000     -4.27438000     -4.02922000       1
N               5.78720000      0.52169200     -3.87661000       7
H               1.65875000      4.22766000     -5.33625000       1
N               6.33521000      0.50811700      2.97602000       7
H              -6.36582000     -2.63386000      1.38649000       1
H               2.63795000      6.38713000      1.38649000       1
P              -2.20464000     -3.96306000      5.48516000      15
H               3.66146000      4.74661000     -4.02922000       1
H               1.73188000     -5.79471000     -4.00333000       1
H               7.17388000      0.31204700      1.05335000       1
H               6.14134000      1.22792000      3.70107000       1
C               7.02890000      1.09823000      1.79585000       6
I               4.04882000     -2.16661000      5.74514000      53
H               5.50894000      0.96536300     -4.77837000       1
H               1.63695000     -4.79333000     -5.33625000       1
H               2.92622000      5.69597000      3.68603000       1
I              -3.98987000      2.34000000      5.79291000      53
H              -5.35192000     -4.41542000      2.66635000       1
H              -5.33012000      4.60557000      2.66635000       1
I              -0.13207400      7.53992000     -0.54683000      53
P               2.13874000      0.39679200     -7.25015000      15
H              -2.60313000     -7.12786000      1.38838000       1
H               6.91831000     -0.22596600      3.43243000       1
H               2.50625000      6.12043000     -4.03378000       1
I              -0.47770000     -1.38325000     -7.61672000      53
I               0.49013300     -5.80266000      5.14493000      53
I              -4.29213000     -6.35418000     -1.25942000      53
P              -2.18284000      5.05793000      5.48516000      15
I               6.22479000     -4.10896000      2.33157000      53
P               6.75305000     -3.90006000     -0.85124700      15
H              -6.07755000     -3.32501000      3.68603000       1
I              -4.93315000     -2.16661000      5.74514000      53
H              -1.01336000     -7.52060000      2.12315000       1
H              -5.34231000     -4.27438000     -4.02922000       1
H              -6.40498000     -3.99108000     -2.61112000       1
C              -6.98606000     -3.43675000      1.79084000       6
I               4.99210000      2.34000000      5.79291000      53
I               4.68984000     -6.35418000     -1.25942000      53
H               7.42784000     -0.41148900     -2.94310000       1
N              -6.27745000     -4.03811000      2.95586000       7
H              -6.49753000     -2.90056000     -4.03378000       1
C               7.19395000      0.03540240     -3.91094000       6
H              -5.32051000      4.74661000     -4.02922000       1
H              -1.64025000     -0.63738800      7.99876000       1
I               0.45496000      3.14870000     -7.56061000      53
I              -7.09459000      0.65095500     -4.08218000      53
I               6.24660000      4.91202000      2.33157000      53
C              -6.32327000     -3.92551000     -3.69851000       6
I              -4.04685000      2.27038000     -6.91262000      53
I               3.99185000     -2.23623000     -6.96040000      53
H              -7.13612000     -4.21436000      1.04033000       1
C              -1.97487000     -7.92275000      1.79585000       6
H               7.99041000      1.50038000      2.12315000       1
N              -6.25564000      4.98288000      2.95586000       7
P               6.77485000      5.12093000     -0.85124700      15
H              -6.38318000      5.02990000     -2.61112000       1
I               4.39428000      7.23478000     -1.24908000      53
P              -2.26161000     -4.03268000     -7.22037000      15
H              -7.11432000      4.80663000      1.04033000       1
I              -4.58769000      7.23478000     -1.24908000      53
H              -3.41605000      1.03499000      7.92716000       1
H               1.71572000      4.29728000      7.36929000       1
H               7.28475000     -0.70701400     -4.70677000       1
H              -1.07860000      0.95827700      8.59845000       1
P              -6.78626000      0.46641700      5.45539000      15
H              -6.83267000      4.24305000      3.40808000       1
P               2.23187000     -8.43042000     -0.80780700      15
H              -7.94572000     -3.04306000      2.13361000       1
I               4.93513000      2.27038000     -6.91262000      53
I              -4.99012000     -2.23623000     -6.96040000      53
I               1.94436000      0.72058100      8.62336000      53
H              -7.22829000      3.22628000     -4.00333000       1
H               7.84639000      0.88865100     -4.10709000       1
C              -6.30147000      5.09547000     -3.69851000       6
H               1.69392000     -4.72370000      7.36929000       1
H              -1.82989000     -8.70894000      1.05335000       1
C              -1.73105000      0.10502800      8.79459000       6
I               8.82810000     -1.48107000     -0.54683000      53
H              -6.85447000     -4.77793000      3.40808000       1
H              -3.35203000     -7.79236000     -3.11986000       1
P              -2.23981000      4.98830000     -7.22037000      15
H              -2.86243000     -7.79307000      3.70107000       1
H              -6.05575000      5.69597000      3.68603000       1
C              -6.96426000      5.58424000      1.79084000       6
H              -6.34402000      6.38713000      1.38649000       1
I               7.19936000     -3.88793000     -4.08399000      53
H              -1.15738000     -8.13234000     -4.10709000       1
H              -1.53233000      8.60950000     -2.94310000       1
I              -0.39892300      7.70737000      5.08881000      53
I              -9.13585000     -1.48107000     -0.54683000      53
I              -8.74808000      3.03750000     -0.61357500      53
I               2.78187000     -8.56979000      2.33791000      53
N              -3.13780000      0.59131700      8.82893000       7
N              -2.66856000     -8.51287000      2.97602000       7
H               2.54142000     -2.83093000      8.67175000       1
H               1.81066000      3.29590000      8.70221000       1
N              -7.34328000      4.21711000     -4.30031000       7
I               1.86558000     -8.37003000     -4.08218000      53
H              -2.12064000     -0.29559100     -9.27311000       1
H              -2.89761000      1.15830000     -9.00447000       1
H              -1.78629000      9.33304000      1.05335000       1
P               6.77733000     -3.96306000      5.48516000      15
I               0.43315800     -5.87229000     -7.56061000      53
I              -1.72564000     -3.81831000      8.62155000      53
N               1.69567000      4.28673000      8.40523000       7
H              -2.04186000      8.79502000      3.43243000       1
H               6.37884000     -7.12786000      1.38838000       1
H              -1.67542000      8.31397000     -4.70677000       1
I              -4.01167000     -6.68098000      5.79291000      53
I               9.21587000      3.03750000     -0.61357500      53
H               5.56592000      1.03499000      7.92716000       1
I               7.22116000      5.13306000     -4.08399000      53
H              -6.47573000      6.12043000     -4.03378000       1
H               0.71376200     -4.43857000      8.68927000       1
N              -7.36508000     -4.80388000     -4.30031000       7
N               1.67386000     -4.73425000      8.40523000       7
H              -3.78432000     -0.18669400      9.04804000       1
I               4.07063000      6.85438000      5.74514000      53
H               0.73556500      4.58242000      8.68927000       1
N              -3.21657000     -8.49930000     -3.87661000       7
H              -1.49716000     -0.34186300      9.76244000       1
P               2.27548000      9.61155000     -0.80780700      15
C              -1.80982000     -8.98559000     -3.91094000       6
H              -3.59495000     -8.89541000      2.69978000       1
P              -6.84323000      0.39679200     -7.25015000      15
H              -3.49483000     -8.05563000     -4.77837000       1
H              -7.32322000      4.22766000     -5.33625000       1
H              -1.57594000     -9.43248000     -2.94310000       1
C              -1.76622000      9.05639000     -3.91094000       6
I               8.56125000     -1.31362000      5.08881000      53
H               2.84744000     -3.39464000     -9.01951000       1
H              -2.08546000     -9.24695000      3.43243000       1
P               6.79913000      5.05793000      5.48516000      15
H               5.62994000     -7.79236000     -3.11986000       1
N              -2.70373000      0.43849100     -9.72951000       7
