200
cutoff_factor=1.20000000 nneightol=1.20000000 Lattice="28.26571000       0.00000000       0.00000000       0.00000000      28.15067000       0.00000000       0.00000000       0.00000000      29.13033000" Properties=species:S:1:pos:R:3:Z:I:1
P               0.53749000     -0.50979900     -0.00955230      15
I              -1.43598000      1.95106000     -0.57031100      53
I              -1.92474000     -2.54202000     -0.00003560      53
I               0.18688800     -0.23359300      3.21961000      53
I               3.01337000      1.44619000      0.00008193      53
I               0.90715800     -1.10396000     -3.19406000      53
H              -2.66736000     -0.54058200     -2.60803000       1
H               1.10146000      2.94493000      2.28239000       1
I               2.50312000     -3.02538000      0.57039400      53
H              -3.71451000     -0.34323200      1.57673000       1
H              -2.36599000     -0.20227200      3.58636000       1
H               1.51715000      3.35970000     -2.28268000       1
H               0.66874800      2.43192000     -3.56389000       1
H               0.53462000     -3.64201000      2.41552000       1
H              -4.12143000     -0.74956000     -1.57667000       1
C              -3.74124000     -0.35932800     -2.52336000       6
H               3.74888000     -0.50779000      2.61046000       1
H               0.11479700     -3.65101000     -2.82917000       1
H              -0.81679700      3.91880000     -2.41513000       1
H              -3.95518000      0.70832900     -2.61045000       1
C               1.01723000      3.41920000     -3.25212000       6
C               1.04271000      3.44467000      3.25196000       6
C              -4.10521000     -0.72292600      2.52343000       6
H               0.61816800      2.77506000      4.00300000       1
N              -3.39335000     -0.03622300      3.63708000       7
H              -3.92516000     -1.79701000      2.60816000       1
H               3.46136000     -0.93819400     -3.58657000       1
H               4.80008000     -0.74956000     -1.57667000       1
H              -3.52444000      0.99540200      3.58655000       1
H              -0.80758000      4.33885000      2.82945000       1
N               0.13721600     -4.29426000      3.11929000       7
N              -0.16424500      4.31546000     -3.11904000       7
H              -0.81828000     -4.58272000      2.82945000       1
H               5.20700000     -0.34323200      1.57673000       1
C               4.81630000     -0.72292600      2.52343000       6
H               0.03994630     -3.80517000      4.03288000       1
P              -3.94922000      3.91974000      0.00960949      15
N              -0.17494500     -4.60611000     -3.11904000       7
N               0.14791600      4.62731000      3.11929000       7
H               2.03046000      3.79182000      3.56371000       1
H              -0.82749700     -5.00277000     -2.41513000       1
H               4.96633000      0.70832900     -2.61045000       1
C               5.18027000     -0.35932800     -2.52336000       6
H               1.68716000      3.84298000     -4.00329000       1
H              -5.17263000     -0.50779000      2.61046000       1
N              -4.42868000     -1.07047000     -3.63702000       7
H               0.54532100      5.27956000      2.41552000       1
I              -3.35546000      3.54948000      3.19411000      53
N               4.49283000     -1.07047000     -3.63702000       7
H              -3.74970000     -0.38328900      4.54969000       1
H               4.99635000     -1.79701000      2.60816000       1
H              -4.26381000     -2.09802000     -3.58624000       1
H               0.12549800      5.27056000     -2.82917000       1
H              -0.65343800      4.41344000     -4.03250000       1
I              -5.90814000      1.44619000      0.00008193      53
H              -0.66413800     -4.50813000     -4.03250000       1
H              -4.08114000     -0.71456800     -4.54963000       1
H               1.50645000     -5.56187000     -2.28268000       1
H               4.65770000     -2.09802000     -3.58624000       1
P               4.97229000      3.91974000      0.00960949      15
I              -2.27248000      0.95095200     -5.86253000      53
P              -3.95992000     -5.00183000      0.00960949      15
I               2.51382000      5.89619000      0.57039400      53
P               0.41540300     -0.78977200     -6.37855000      15
C               1.03201000     -5.47690000      3.25196000       6
P               0.80307800     -0.40243500      6.39345000      15
C               1.00653000     -5.50237000     -3.25212000       6
H               1.09076000     -5.97664000      2.28239000       1
H               0.05064660      5.11640000      4.03288000       1
H               5.39707000      0.99540200      3.58655000       1
H               2.01976000     -5.12975000      3.56371000       1
H              -5.46016000     -0.93819400     -3.58657000       1
N               5.52816000     -0.03622300      3.63708000       7
I              -1.91404000      6.37954000     -0.00003560      53
H               1.67645000     -5.07859000     -4.00329000       1
H               4.84037000     -0.71456800     -4.54963000       1
H               6.25415000     -0.54058200     -2.60803000       1
I              -4.22506000      4.27056000     -3.21953000      53
H               5.17181000     -0.38328900      4.54969000       1
I               2.28855000      1.78412000     -6.38604000      53
P               4.96159000     -5.00183000      0.00960949      15
I              -4.23576000     -4.65101000     -3.21953000      53
I              -3.36617000     -5.37209000      3.19411000      53
I               4.69646000      4.27056000     -3.21953000      53
I              -6.41839000     -3.02538000      0.57039400      53
I              -1.44669000     -6.97050000     -0.57031100      53
I               3.50417000     -2.19005000      5.86259000      53
I              -0.95066700     -3.12954000      6.38611000      53
I               2.67623000      2.17146000      6.38596000      53
I              -1.88481000      1.33829000      6.90947000      53
I               5.56605000      3.54948000      3.19411000      53
I               4.68576000     -4.65101000     -3.21953000      53
H               0.60746800     -6.14651000      4.00300000       1
I              -1.33834000     -3.51688000     -6.38589000      53
H               0.65804700     -6.48965000     -3.56389000       1
I               6.99677000     -2.54202000     -0.00003560      53
H               6.55552000     -0.20227200      3.58636000       1
I               7.48553000      1.95106000     -0.57031100      53
I               3.11650000     -2.57739000     -6.90941000      53
I               3.00267000     -7.47538000      0.00008193      53
I              -5.41734000     -2.19005000      5.86259000      53
I               5.55535000     -5.37209000      3.19411000      53
P              -3.66916000      4.04154000      6.37861000      15
P              -8.38402000     -0.50979900     -0.00955230      15
P              -4.05684000      3.65420000     -6.39339000      15
P               0.54819000      8.41177000     -0.00955230      15
H              -7.40436000      3.35970000     -2.28268000       1
I              -1.32764000      5.40469000     -6.38589000      53
I               0.91785800      7.81761000     -3.19406000      53
H              -3.91446000      7.12456000      2.60816000       1
H              -6.89105000      3.79182000      3.56371000       1
H              -7.82005000      2.94493000      2.28239000       1
I              -0.93996600      5.79203000      6.38611000      53
I              -8.01435000     -1.10396000     -3.19406000      53
I              -6.40769000      5.89619000      0.57039400      53
H              -4.25311000      6.82355000     -3.58624000       1
P               4.86468000      3.65420000     -6.39339000      15
P              -3.67986000     -4.88003000      6.37861000      15
I               6.64903000      0.95095200     -5.86253000      53
H               4.66840000      6.82355000     -3.58624000       1
H              -3.69347000     -0.32723200      8.22237000       1
H               5.00705000      7.12456000      2.60816000       1
H               0.23049400      2.38773000     -8.76900000       1
H              -7.23436000      3.84298000     -4.00329000       1
H              -2.65666000      8.38099000     -2.60803000       1
I              -6.24528000      2.17146000      6.38596000      53
C              -7.87881000      3.44467000      3.25196000       6
P               5.25235000      4.04154000      6.37861000      15
C              -7.90429000      3.41920000     -3.25212000       6
P              -4.06754000     -5.26736000     -6.39339000      15
H              -4.13737000     -0.77062500     -8.22230000       1
I               0.19758800      8.68798000      3.21961000      53
H              -4.11073000      8.17201000     -1.57667000       1
H              -6.90175000     -5.12975000      3.56371000       1
I              -8.73462000     -0.23359300      3.21961000      53
H              -8.25276000      2.43192000     -3.56389000       1
H               8.10471000      3.91880000     -2.41513000       1
I              -6.63296000      1.78412000     -6.38604000      53
I              -5.80501000     -2.57739000     -6.90941000      53
H              -3.53514000     -7.92617000      3.58655000       1
H               3.47206000      7.98337000     -3.58657000       1
P               0.52679000     -9.43137000     -0.00955230      15
H              -8.38689000     -3.64201000      2.41552000       1
P               9.45900000     -0.50979900     -0.00955230      15
H              -3.70381000      8.57834000      1.57673000       1
I               7.00748000      6.37954000     -0.00003560      53
H              -3.96588000     -8.21324000     -2.61045000       1
C              -4.09451000      8.19864000      2.52343000       6
I              -5.91884000     -7.47538000      0.00008193      53
H               4.78414000     -0.77062500     -8.22230000       1
H              -7.41506000     -5.56187000     -2.28268000       1
I              -0.20078700     -0.62092900     -9.55239000      53
H               3.75958000      8.41378000      2.61046000       1
P               5.24165000     -4.88003000      6.37861000      15
I               3.51487000      6.73152000      5.86259000      53
P               4.85398000     -5.26736000     -6.39339000      15
H              -2.75366000     -0.58960800     -9.18564000       1
H               4.81078000      8.17201000     -1.57667000       1
H               8.11393000      4.33885000      2.82945000       1
H              -8.30334000      2.77506000      4.00300000       1
I               9.10840000     -0.23359300      3.21961000      53
H              -0.27646400     -4.12079000      8.73950000       1
I               2.66553000     -6.75011000      6.38596000      53
C              -3.73054000      8.56224000     -2.52336000       6
H               1.05642000      2.81925000      9.20811000       1
I               1.29483000     -0.71662100      9.57794000      53
H              -0.34772800     -4.19251000     -8.73912000       1
I               0.17618700     -9.15516000      3.21961000      53
H              -7.24506000     -5.07859000     -4.00329000       1
N              -4.41798000      7.85110000     -3.63702000       7
H              -2.35529000      8.71930000      3.58636000       1
H               8.10323000     -4.58272000      2.82945000       1
H               5.22804000     -0.32723200      8.22237000       1
N               4.50353000      7.85110000     -3.63702000       7
H               8.09401000     -5.00277000     -2.41513000       1
C               4.82700000      8.19864000      2.52343000       6
I               2.27785000     -7.13745000     -6.38604000      53
I               3.12720000      6.34418000     -6.90941000      53
N              -3.78103000     -0.42355900     -9.13492000       7
H               4.95563000     -8.21324000     -2.61045000       1
H              -0.33702800      4.72906000     -8.73912000       1
H              -8.80671000     -3.65101000     -2.82917000       1
I               7.03670000      1.33829000      6.90947000      53
H               1.64279000      3.40449000     -9.20829000       1
H               2.07483000      4.23031000      8.76871000       1
H               3.84903000     -0.55085800      9.18543000       1
H              -0.26576300      4.80077000      8.73950000       1
H              -3.91212000      0.60806500     -9.18545000       1
N              -4.04101000     -0.68313700      9.13498000       7
C               0.65503200      3.05734000     -9.52004000       6
H              -2.37669000     -9.12384000      3.58636000       1
H              -3.72521000     -9.26480000      1.57673000       1
H              -7.83075000     -5.97664000      2.28239000       1
H              -3.87614000     -1.71068000      9.18576000       1
C              -7.88951000     -5.47690000      3.25196000       6
H               9.03631000     -3.65101000     -2.82917000       1
I              -2.28318000     -7.97062000     -5.86253000      53
H               2.06413000     -4.69126000      8.76871000       1
H               5.21770000      8.57834000      1.57673000       1
C              -7.91499000     -5.50237000     -3.25212000       6
