200
cutoff_factor=1.20000000 nneightol=1.20000000 Lattice="28.63861000       0.00000000       0.00000000       0.00000000      27.89679000       0.00000000       0.00000000       0.00000000      29.48095000" Properties=species:S:1:pos:R:3:Z:I:1
P              -0.10510100     -1.71561000     -0.00621800      15
I              -1.87090000      1.05097000      0.08437800      53
I               2.51228000      0.22959700     -0.11891400      53
H              -0.44544700      1.99619000     -1.82100000       1
H              -1.01074000      1.91000000      2.37770000       1
H               1.02655000      1.67119000     -2.54814000       1
H               0.12124100      1.03129000      3.22864000       1
N               0.30197600      2.39575000     -2.42838000       7
I               0.20470600     -1.65206000      3.20396000      53
I              -0.21820600     -1.72841000     -3.18685000      53
H               0.72846600      3.17913000     -1.88592000       1
N              -0.42830300      1.91210000      3.24101000       7
H               1.09915000      3.12010000      2.44038000       1
I              -2.78913000     -3.39046000      0.10237200      53
H               2.86914000     -2.14452000      2.82761000       1
C               0.45236800      3.11086000      3.31956000       6
H              -1.04731000      1.84560000      4.07772000       1
I               1.74878000     -4.30684000     -0.04686970      53
C              -0.23592700      2.85277000     -3.74347000       6
H              -0.67214000      1.99285000     -4.25704000       1
H              -2.85394000     -2.17349000     -3.34577000       1
H               4.15180000     -1.75535000     -1.93639000       1
I               1.71605000      4.64155000     -0.04686970      53
H               3.12994000     -1.78794000     -3.41149000       1
H               4.24458000     -2.27045000      1.84288000       1
H              -0.99723400      3.61426000     -3.55978000       1
H              -3.24871000     -1.71590000      3.68435000       1
H              -0.17612500      4.00390000      3.34469000       1
P               4.41015000      2.82335000      0.00410464      15
H               1.05076000      3.03585000      4.22937000       1
C               4.11332000     -1.53865000     -3.00635000       6
P              -4.53544000      2.82335000      0.00410464      15
N               3.88554000     -2.36075000      2.81515000       7
H               4.34895000     -0.48833200     -3.19271000       1
H               0.58717200      3.26923000     -4.32874000       1
H              -4.79380000     -1.75535000     -1.93639000       1
H              -4.70101000     -2.27045000      1.84288000       1
H              -4.59664000     -0.48833200     -3.19271000       1
H               4.46870000     -0.42946400      3.43658000       1
H              -4.47689000     -0.42946400      3.43658000       1
N              -3.81242000     -2.38025000     -3.69269000       7
C              -4.31014000     -1.46448000      3.74364000       6
C              -4.83228000     -1.53865000     -3.00635000       6
H              -0.14340100     -4.94449000      3.34469000       1
H               4.02145000     -3.35803000      3.08183000       1
H               0.76118900     -5.76926000     -1.88592000       1
C               4.63545000     -1.46448000      3.74364000       6
I               4.36073000      2.97575000      3.22458000      53
I              -2.82185000      5.55794000      0.10237200      53
I               4.43950000      2.99092000     -3.19622000      53
N              -5.06005000     -2.36075000      2.81515000       7
I              -4.50609000      2.99092000     -3.19622000      53
H              -3.99786000     -3.39280000     -3.53515000       1
I              -4.58486000      2.97575000      3.22458000      53
H               1.13188000     -5.82829000      2.44038000       1
I              -6.43331000      0.22959700     -0.11891400      53
H              -3.81194000     -2.20117000     -4.71358000       1
H              -0.96451100     -5.33413000     -3.55978000       1
H               4.26205000     -1.62783000      4.75699000       1
P              -0.06074260     -1.67581000     -6.41414000      15
I              -1.91284000      0.94967800      6.30580000      53
I               1.79520000      0.89428500     -6.35026000      53
P              -0.00007974     -1.69674000      6.47856000      15
H              -4.92414000     -3.35803000      3.08183000       1
C               0.48509200     -5.83754000      3.31956000       6
N               5.13317000     -2.38025000     -3.69269000       7
H              -4.68354000     -1.62783000      4.75699000       1
I              -2.69355000      0.16274100     -6.34099000      53
I               2.52623000      0.31285000      6.41314000      53
H               4.94773000     -3.39280000     -3.53515000       1
H              -5.81565000     -1.78794000     -3.41149000       1
N               0.33469900     -6.55265000     -2.42838000       7
H               5.69688000     -1.71590000      3.68435000       1
I               6.15646000     -3.39046000      0.10237200      53
H              -6.07645000     -2.14452000      2.82761000       1
I               7.07470000      1.05097000      0.08437800      53
C              -0.20320300     -6.09563000     -3.74347000       6
H               0.61989600     -5.67916000     -4.32874000       1
H              -0.41272400     -6.95221000     -1.82100000       1
P              -0.13782400      7.23278000     -0.00621800      15
H               6.09165000     -2.17349000     -3.34577000       1
H               5.13365000     -2.20117000     -4.71358000       1
H               1.08348000     -5.91255000      4.22937000       1
H              -0.97801400     -7.03839000      2.37770000       1
H               3.98873000      5.59037000      3.08183000       1
P               4.44288000     -6.12504000      0.00410464      15
P              -4.50271000     -6.12504000      0.00410464      15
H              -4.03059000      5.55560000     -3.53515000       1
N              -0.39558000     -7.03629000      3.24101000       7
H               1.05927000     -7.27720000     -2.54814000       1
I              -2.58493000     -3.50718000      6.52924000      53
H               2.83642000      6.80387000      2.82761000       1
I              -0.25093000      7.21998000     -3.18685000      53
I               2.50001000     -3.59725000     -6.57370000      53
I               0.17198300      7.29633000      3.20396000      53
I              -2.00651000     -4.23408000     -6.46636000      53
I               1.87191000     -4.23872000      6.53851000      53
H              -4.95686000      5.59037000      3.08183000       1
I               4.39345000     -5.97264000      3.22458000      53
H              -2.88666000      6.77490000     -3.34577000       1
I               4.47223000     -5.95747000     -3.19622000      53
I              -4.47336000     -5.95747000     -3.19622000      53
H               4.21185000      6.67795000      1.84288000       1
I              -1.83817000     -7.89742000      0.08437800      53
N               3.85282000      6.58764000      2.81515000       7
I              -4.55214000     -5.97264000      3.22458000      53
H              -0.63941700     -6.95554000     -4.25704000       1
P               4.38004000      2.70472000     -6.40094000      15
H               4.91501000      5.55560000     -3.53515000       1
H              -1.01458000     -7.10279000      4.07772000       1
I              -2.03924000      4.71431000     -6.46636000      53
I               1.83919000      4.70967000      6.53851000      53
I               6.12374000      5.55794000      0.10237200      53
P              -4.56555000      2.70472000     -6.40094000      15
P               4.47200000      2.87112000      6.46536000      15
P              -4.47359000      2.87112000      6.46536000      15
I              -7.19681000     -4.30684000     -0.04686970      53
H              -4.73374000      6.67795000      1.84288000       1
N              -3.84515000      6.56815000     -3.69269000       7
H              -7.91905000      1.67119000     -2.54814000       1
H               7.93485000      1.91000000      2.37770000       1
H               4.11907000      7.19304000     -1.93639000       1
H               3.09721000      7.16046000     -3.41149000       1
H               0.72080200      2.34576000      8.16592000       1
H               0.15396400     -7.91711000      3.22864000       1
H              -0.30341800      2.77363000     -8.12251000       1
I              -7.22954000      4.64155000     -0.04686970      53
H              -3.28143000      7.23249000      3.68435000       1
H              -7.84644000      3.12010000      2.44038000       1
N              -5.09277000      6.58764000      2.81515000       7
I               2.46728000      5.35114000     -6.57370000      53
H              -4.82652000      7.19304000     -1.93639000       1
I              -2.61765000      5.44122000      6.52924000      53
I               6.25204000      0.16274100     -6.34099000      53
H               8.50014000      1.99619000     -1.82100000       1
C               4.08059000      7.40974000     -3.00635000       6
P               8.84049000     -1.71561000     -0.00621800      15
H              -8.21713000      3.17913000     -1.88592000       1
H               7.89829000      1.84560000      4.07772000       1
I              -6.41936000      0.31285000      6.41314000      53
I               2.54501000     -8.71880000     -0.11891400      53
H              -3.84467000      6.74723000     -4.71358000       1
N               5.10045000      6.56815000     -3.69269000       7
P              -9.05069000     -1.71561000     -0.00621800      15
N              -8.64362000      2.39575000     -2.42838000       7
N               8.51729000      1.91210000      3.24101000       7
C              -4.86500000      7.40974000     -3.00635000       6
H              -3.79295000     -1.13223000      8.55076000       1
C              -4.34287000      7.48391000      3.74364000       6
H               7.94836000      3.61426000     -3.55978000       1
H               0.53488300      1.15413000      9.34435000       1
H              -3.48199000     -1.51108000     -8.65013000       1
I               8.72738000     -1.72841000     -3.18685000      53
H              -8.82435000      1.03129000      3.22864000       1
I              -8.74088000     -1.65206000      3.20396000      53
H              -7.89484000      3.03585000      4.22937000       1
N               0.72032300      2.16668000      9.18681000       7
I               7.03275000      0.94967800      6.30580000      53
I               2.47956000      9.17799000     -0.11891400      53
H               8.27345000      1.99285000     -4.25704000       1
C               4.60273000      7.48391000      3.74364000       6
H              -6.10917000      6.80387000      2.82761000       1
C               0.06998060      2.93698000     -9.13586000       6
I              -7.15039000      0.89428500     -6.35026000      53
C              -8.49322000      3.11086000      3.31956000       6
H               1.13141000      2.68556000     -9.19515000       1
H               9.06683000      1.03129000      3.22864000       1
H               5.10093000      6.74723000     -4.71358000       1
H               6.05893000      6.77490000     -3.34577000       1
P              -0.09346590      7.27258000     -6.41414000      15
H               4.22933000      7.32056000      4.75699000       1
P              -0.03280310      7.25165000      6.47856000      15
H               3.89333000     -2.40861000      8.62246000       1
I               6.36067000     -3.50718000      6.52924000      53
H              -9.39104000      1.99619000     -1.82100000       1
I              -0.17201800     -1.57118000     -9.65492000      53
I               0.05938150     -1.41054000      9.68328000      53
H               3.36554000     -2.70133000     -8.80178000       1
I               9.15030000     -1.65206000      3.20396000      53
H              -5.84838000      7.16046000     -3.41149000       1
I              -9.16380000     -1.72841000     -3.18685000      53
N               9.24757000      2.39575000     -2.42838000       7
H              -0.54401600      1.04344000     -9.79767000       1
I              -6.44558000     -3.59725000     -6.57370000      53
H               5.66416000      7.23249000      3.68435000       1
C               8.70966000      2.85277000     -3.74347000       6
P              -4.44087000     -6.07727000      6.46536000      15
H              -4.71626000      7.32056000      4.75699000       1
H              -1.28291000      2.75899000      9.46801000       1
P               4.50473000     -6.07727000      6.46536000      15
H              -8.35842000      3.26923000     -4.32874000       1
H               1.67880000      2.37344000      9.53373000       1
P               4.41277000     -6.24367000     -6.40094000      15
H               3.56823000     -0.78720000      9.31972000       1
H               4.31623000      8.46006000     -3.19271000       1
P              -4.53282000     -6.24367000     -6.40094000      15
H               5.15264000     -1.13223000      8.55076000       1
H              -7.81372000     -5.82829000      2.44038000       1
N              -9.37389000      1.91210000      3.24101000       7
H              -4.62937000      8.46006000     -3.19271000       1
