200
cutoff_factor=1.20000000 nneightol=1.20000000 Lattice="29.81688000       0.00000000       0.00000000       0.00000000      28.98617000       0.00000000       0.00000000       0.00000000      29.52882000" Properties=species:S:1:pos:R:3:Z:I:1
I               1.14540000     -0.55651400     -0.13690200      53
P              -0.55360700      2.28207000      0.01142490      15
H               0.06926140     -1.62820000      2.06543000       1
H              -0.79445200     -1.65295000     -1.90869000       1
H              -1.00754000     -0.54705700     -3.13886000       1
I              -3.32514000      0.50916400     -0.00197040      53
H              -0.16096700     -0.64497200      3.38881000       1
N              -1.11670000     -1.55187000     -2.89189000       7
N               0.05122660     -1.62327000      3.10548000       7
I              -0.58105200      1.96980000      3.17475000      53
I              -0.51672000      2.08729000     -3.17553000      53
H               1.01697000     -1.84569000      3.41923000       1
H              -2.12666000     -1.79673000     -2.94913000       1
H               0.74970600     -2.12251000     -3.69837000       1
H               2.88020000      1.31692000     -3.05358000       1
H              -1.93614000     -2.30967000      3.29557000       1
I               2.20504000      3.92755000     -0.01631250      53
P               3.89497000     -2.26308000      0.01020730      15
C              -0.29937700     -2.40857000     -3.80315000       6
H               3.11513000      2.61724000     -2.01357000       1
C              -0.94532400     -2.58557000      3.66350000       6
I              -2.34399000     -4.02651000      0.17571200      53
H               2.89652000      1.26063000      3.47025000       1
N               3.59455000      1.93457000     -2.64066000       7
H               4.21586000      1.37004000     -2.02295000       1
H              -0.67976400     -3.59118000      3.32957000       1
H              -0.44163300     -3.45325000     -3.51718000       1
H              -4.17283000      1.88322000      2.04134000       1
H               3.60592000      3.08295000      2.02406000       1
H              -4.72267000      1.37004000     -2.02295000       1
I               3.67487000     -2.23319000      3.17501000      53
H              -0.63822200     -2.24339000     -4.82843000       1
I              -2.32764000      4.93374000      0.17571200      53
H              -0.91200600     -2.52421000      4.75377000       1
I               2.18870000     -5.03270000     -0.01631250      53
H               4.76570000      1.88322000      2.04134000       1
P              -5.04356000     -2.26308000      0.01020730      15
I               5.61339000      0.50916400     -0.00197040      53
C               3.63821000      1.98085000      3.82299000       6
I               4.15263000     -2.15371000     -3.15997000      53
N               4.29841000      2.60131000      2.63595000       7
H              -3.93033000      3.28801000      2.93331000       1
N              -4.64012000      2.60131000      2.63595000       7
H              -3.80400000      3.26956000     -3.19575000       1
H               3.15709000      2.77107000      4.40359000       1
I              -4.78590000     -2.15371000     -3.15997000      53
H              -4.06396000      1.89593000     -4.31942000       1
N              -5.34398000      1.93457000     -2.64066000       7
C               4.38831000      2.64324000     -3.68999000       6
H              -0.66341900      5.36907000      3.32957000       1
H               4.40241000      1.47980000      4.42148000       1
C              -4.55022000      2.64324000     -3.68999000       6
H              -5.33261000      3.08295000      2.02406000       1
H              -4.53612000      1.47980000      4.42148000       1
H               3.70839000      3.25801000     -4.28094000       1
I              -5.26366000     -2.23319000      3.17501000      53
H              -0.42528800      5.50700000     -3.51718000       1
H               5.00820000      3.28801000      2.93331000       1
I               1.73162000      0.05709810      6.46216000      53
H              -5.82340000      2.61724000     -2.01357000       1
P              -0.56995200     -6.67818000      0.01142490      15
I               1.59053000     -0.18491400     -6.52756000      53
H               4.87457000      1.89593000     -4.31942000       1
P              -0.67908400      2.13694000      6.41602000      15
P              -0.42476500      2.26004000     -6.40682000      15
C              -5.30032000      1.98085000      3.82299000       6
H               5.13453000      3.26956000     -3.19575000       1
H              -6.05833000      1.31692000     -3.05358000       1
I              -2.73799000     -0.30086200      6.47394000      53
I              -2.86988000      0.21734900     -6.46557000      53
H              -6.04201000      1.26063000      3.47025000       1
H               3.58958000     -5.87730000      2.02406000       1
H               3.09879000     -6.34301000     -2.01357000       1
C              -0.92898000      6.37468000      3.66350000       6
H              -5.23015000      3.25801000     -4.28094000       1
H              -3.94667000     -5.67224000      2.93331000       1
H              -3.82034000     -5.69069000     -3.19575000       1
C              -0.28303200      6.55168000     -3.80315000       6
I              -0.53306500     -6.87296000     -3.17553000      53
H              -0.77810700      7.30730000     -1.90869000       1
H               0.08560610      7.33205000      2.06543000       1
H               6.81187000     -1.79673000     -2.94913000       1
H              -1.91979000      6.65058000      3.29557000       1
I              -0.59739600     -6.99045000      3.17475000      53
I               6.59454000     -4.02651000      0.17571200      53
P               3.91132000      6.69717000      0.01020730      15
H              -5.78144000      2.77107000      4.40359000       1
I              -6.73349000      3.92755000     -0.01631250      53
P               3.79225000     -2.36016000      6.40423000      15
H               0.76605000      6.83774000     -3.69837000       1
I              -7.79313000     -0.55651400     -0.13690200      53
I               1.34714000     -4.40285000      6.34548000      53
P               4.02608000     -2.20311000     -6.39503000      15
I               1.98352000      4.31933000     -6.33711000      53
I               1.36349000      4.55740000      6.34548000      53
H               1.03331000      7.11456000      3.41923000       1
N               0.06757130      7.33698000      3.10548000       7
N              -1.10035000      7.40838000     -2.89189000       7
H              -2.11031000      7.16352000     -2.94913000       1
H               3.69204000     -5.70224000     -4.28094000       1
H              -0.89566100      6.43604000      4.75377000       1
I              -2.50174000     -4.28296000     -6.34889000      53
H               7.00239000     -2.30967000      3.29557000       1
I               1.96717000     -4.64092000     -6.33711000      53
H               4.99186000     -5.67224000      2.93331000       1
N               4.28207000     -6.35894000      2.63595000       7
I              -3.11464000      4.15514000      6.28350000      53
H              -5.34895000     -5.87730000      2.02406000       1
H               3.14075000     -6.18918000      4.40359000       1
I               6.61089000      4.93374000      0.17571200      53
I              -2.48540000      4.67729000     -6.34889000      53
H               5.11819000     -5.69069000     -3.19575000       1
H              -0.62187700      6.71686000     -4.82843000       1
I               3.69122000      6.72706000      3.17501000      53
N              -4.65646000     -6.35894000      2.63595000       7
N               3.57821000     -7.02568000     -2.64066000       7
P              -4.91245000     -2.20311000     -6.39503000      15
P              -5.02722000      6.69717000      0.01020730      15
I              -6.74983000     -5.03270000     -0.01631250      53
H              -4.18917000     -7.07703000      2.04134000       1
N               7.82183000     -1.55187000     -2.89189000       7
I               1.16175000      8.40374000     -0.13690200      53
I              -3.13098000     -4.80511000      6.28350000      53
C               4.37197000     -6.31701000     -3.68999000       6
H               8.14408000     -1.65295000     -1.90869000       1
H               7.93099000     -0.54705700     -3.13886000       1
P              -5.14628000     -2.36016000      6.40423000      15
I               4.16898000      6.80654000     -3.15997000      53
H              -1.07627000     -1.56899000     -8.40746000       1
C              -4.56656000     -6.31701000     -3.68999000       6
P               8.38492000      2.28207000      0.01142490      15
H              -1.01313000     -1.36218000      8.53011000       1
H               2.86385000     -7.64333000     -3.05358000       1
C               3.62187000     -6.97940000      3.82299000       6
H               4.74936000     -7.07703000      2.04134000       1
H              -7.92156000     -1.84569000      3.41923000       1
H              -5.24649000     -5.70224000     -4.28094000       1
H              -5.83974000     -6.34301000     -2.01357000       1
H               0.16904800     -2.86025000     -8.38957000       1
I               6.06866000      0.21734900     -6.46557000      53
I              -4.76955000      6.80654000     -3.15997000      53
H               4.19952000     -7.59021000     -2.02295000       1
H               0.15306200     -2.72427000      8.49163000       1
H               2.88017000     -7.69962000      3.47025000       1
I               6.20054000     -0.30086200      6.47394000      53
H              -0.14462300      8.31528000      3.38881000       1
H               3.59514000      2.09667000      7.98263000       1
H              -0.99119100      8.41319000     -3.13886000       1
I              -3.34149000     -8.45109000     -0.00197040      53
I              -5.24731000      6.72706000      3.17501000      53
I               8.35748000      1.96980000      3.17475000      53
H               3.80951000      2.09598000     -8.05728000       1
C               7.99321000     -2.58557000      3.66350000       6
H              -4.73901000     -7.59021000     -2.02295000       1
N              -5.36032000     -7.02568000     -2.64066000       7
H              -4.08030000     -7.06432000     -4.31942000       1
H              -8.18882000     -2.12251000     -3.69837000       1
I               8.42181000      2.08729000     -3.17553000      53
H              -8.86927000     -1.62820000      2.06543000       1
P              -0.44110900     -6.70021000     -6.40682000      15
C              -0.59514900     -2.35921000     -8.98807000       6
C              -0.33319900     -1.97696000      9.12107000       6
H               9.00779000     -1.62820000      2.06543000       1
P              -0.69542900     -6.82331000      6.41602000      15
H               8.77756000     -0.64497200      3.38881000       1
I               5.82389000      4.15514000      6.28350000      53
N              -8.88730000     -1.62327000      3.10548000       7
H              -5.79778000     -6.18918000      4.40359000       1
C              -5.31666000     -6.97940000      3.82299000       6
I               1.12906000     -9.51676000     -0.13690200      53
H               4.85823000     -7.06432000     -4.31942000       1
H               8.25877000     -3.59118000      3.32957000       1
N               8.98976000     -1.62327000      3.10548000       7
H               8.02652000     -2.52421000      4.75377000       1
I              -7.20691000      0.05709810      6.46216000      53
H               0.41302100     -1.35063000      9.61531000       1
H              -9.09950000     -0.64497200      3.38881000       1
H               4.38607000     -7.48045000      4.42148000       1
C               8.63915000     -2.40857000     -3.80315000       6
P              -9.49214000      2.28207000      0.01142490      15
H              -5.12902000      2.09598000     -8.05728000       1
H              -4.55246000     -7.48045000      4.42148000       1
I               5.80755000     -4.80511000      6.28350000      53
H               8.49690000     -3.45325000     -3.51718000       1
I              -7.34800000     -0.18491400     -6.52756000      53
H              -5.34339000      2.09667000      7.98263000       1
H               8.30031000     -2.24339000     -4.82843000       1
I              -0.55253500      2.18634000      9.65108000      53
H              -1.33685000     -3.07942000     -9.34081000       1
I              -0.54214600      2.38701000     -9.63605000      53
P               3.80860000      6.60009000      6.40423000      15
H               0.77484000     -1.05204000     -9.87774000       1
I               6.43679000     -4.28296000     -6.34889000      53
C               3.93399000      1.93148000      9.00790000       6
I              -3.30880000      9.46941000     -0.00197040      53
H              -9.73298000     -1.65295000     -1.90869000       1
H              -1.02388000     -9.50731000     -3.13886000       1
H               3.79173000      0.88680500      9.29387000       1
I              10.08390000     -0.55651400     -0.13690200      53
C               3.77619000      2.03462000     -9.14755000       6
