200
cutoff_factor=1.20000000 nneightol=1.20000000 Lattice="28.94917000       0.00000000       0.00000000       0.00000000      27.82865000       0.00000000       0.00000000       0.00000000      29.08341000" Properties=species:S:1:pos:R:3:Z:I:1
P               0.18635000     -1.05148000      0.00293264      15
I              -2.30555000      0.98492200      0.42785100      53
I               2.06172000      1.54130000     -0.53009200      53
H               0.73875000      2.36898000      2.19055000       1
I               0.77859900     -0.89643500      3.15047000      53
H               0.44197000      2.43699000     -2.31720000       1
I              -0.50220800     -1.12343000     -3.18595000      53
I              -1.71996000     -3.61809000      0.38359800      53
I               2.73714000     -3.01363000     -0.51034800      53
H              -1.52133000      2.58030000      3.00686000       1
N               0.03472960      2.90800000     -3.15378000       7
C               0.53622300      2.92520000      3.10823000       6
H              -1.00037000      2.79926000     -3.14697000       1
H              -3.90224000     -0.87589300      1.95754000       1
H               3.27454000     -0.15642200     -3.11494000       1
H               0.67426900      2.28527000      3.98223000       1
H              -4.08777000      0.24991700     -2.20344000       1
N              -0.87492700      3.38462000      3.07923000       7
H              -2.98563000     -2.04096000      2.97078000       1
H              -3.05664000     -1.73835000     -3.10053000       1
H               0.43658900      2.44379000     -3.99530000       1
H              -1.04247000      4.00204000      2.25436000       1
H              -0.00344060     -4.31176000     -2.24229000       1
H               3.25355000     -0.79906300      3.65835000       1
C              -3.97789000     -1.68109000      2.68955000       6
H               1.17753000      3.80617000      3.17277000       1
H               4.76634000      0.24991700     -2.20344000       1
H              -0.01765950      4.80574000     -2.24229000       1
H               4.35640000     -2.12323000     -2.27283000       1
C               4.36528000     -0.21567700     -3.10639000       6
C               0.39635100      4.35140000     -3.14509000       6
H               4.95187000     -0.87589300      1.95754000       1
N              -4.09472000     -1.65002000     -3.11044000       7
H               4.27071000     -2.49815000      2.29184000       1
C              -4.48883000     -0.21567700     -3.10639000       6
H              -4.49771000     -2.12323000     -2.27283000       1
P              -4.29136000      3.47358000     -0.03808700      15
H               1.48543000      4.43546000     -3.15023000       1
H              -1.10941000      3.93472000      3.93398000       1
H              -1.02825000     -5.11546000      2.25436000       1
H              -4.58339000     -2.49815000      2.29184000       1
H              -4.07332000      0.25899600     -3.99802000       1
C               0.41057000     -4.76610000     -3.14509000       6
P               4.56274000      3.47358000     -0.03808700      15
I              -1.73418000      5.49941000      0.38359800      53
C               4.87621000     -1.68109000      2.68955000       6
H               1.49965000     -4.68204000     -3.15023000       1
N               4.20427000     -1.14746000      3.90573000       7
I              -3.58155000      3.42069000     -3.18500000      53
H              -0.01300120     -4.29874000     -4.03677000       1
N               4.75939000     -1.65002000     -3.11044000       7
H              -4.08610000     -0.39227700      4.35209000       1
N              -4.64984000     -1.14746000      3.90573000       7
H               4.78078000      0.25899600     -3.99802000       1
H               4.36778000     -2.12435000     -3.94971000       1
H              -0.02722000      4.81875000     -4.03677000       1
H               1.19175000     -5.31132000      3.17277000       1
I               4.10142000      3.62143000      3.13551000      53
H              -4.48633000     -2.12435000     -3.94971000       1
P               0.07208520     -1.06260000      6.27303000      15
I              -2.46026000      0.89957000      5.80577000      53
I               2.03721000      1.57917000     -5.84597000      53
H              -5.57956000     -0.15642200     -3.11494000       1
P               0.14125000     -1.04816000     -6.32957000      15
H               4.06103000     -1.88986000      4.61595000       1
H               4.76801000     -0.39227700      4.35209000       1
N              -0.86070800     -5.73287000      3.07923000       7
H              -1.09519000     -5.18278000      3.93398000       1
I               6.54856000      0.98492200      0.42785100      53
I               2.72293000      6.10386000     -0.51034800      53
H              -5.60055000     -0.79906300      3.65835000       1
I              -4.75268000      3.62143000      3.13551000      53
H               5.79747000     -1.73835000     -3.10053000       1
I              -6.11696000     -3.01363000     -0.51034800      53
H               5.86848000     -2.04096000      2.97078000       1
H              -4.79308000     -1.88986000      4.61595000       1
C               0.55044200     -6.19230000      3.10823000       6
N               0.04894840     -6.20949000     -3.15378000       7
I              -6.79239000      1.54130000     -0.53009200      53
I               5.27256000      3.42069000     -3.18500000      53
P              -4.27714000     -5.64391000     -0.03808700      15
H               0.45618900     -6.68050000     -2.31720000       1
I              -1.75559000     -3.65656000      5.83454000      53
H              -0.98615500     -6.31824000     -3.14697000       1
H               0.75296900     -6.74852000      2.19055000       1
I               2.82092000     -2.93591000     -5.87288000      53
I               1.96804000      1.56473000      6.75664000      53
I              -2.39110000      0.91400800     -6.79683000      53
P               4.57696000     -5.64391000     -0.03808700      15
H              -1.50711000     -6.53719000      3.00686000       1
I              -3.56733000     -5.69681000     -3.18500000      53
I               4.11564000     -5.49607000      3.13551000      53
H               0.45080800     -6.67371000     -3.99530000       1
I               2.75175000     -2.95035000      6.72972000      53
I              -1.68643000     -3.64212000     -6.76806000      53
I               2.07594000     -7.57620000     -0.53009200      53
I              -4.73846000     -5.49607000      3.13551000      53
H               0.68848800     -6.83222000      3.98223000       1
I               7.13415000     -3.61809000      0.38359800      53
P               0.17213100      8.06601000      0.00293264      15
I              -1.76981000      5.46093000      5.83454000      53
H               4.25649000      6.61935000      2.29184000       1
H              -2.99984000      7.07653000      2.97078000       1
H               7.33277000      2.58030000      3.00686000       1
P              -4.26336000      3.49575000     -6.29846000      15
H              -4.59761000      6.61935000      2.29184000       1
I               5.28678000     -5.69681000     -3.18500000      53
P              -4.33252000      3.48131000      6.30415000      15
I              -2.29133000     -8.13257000      0.42785100      53
P               4.52158000      3.48131000      6.30415000      15
H               4.34218000      6.99427000     -2.27283000       1
P               4.59075000      3.49575000     -6.29846000      15
H              -3.07086000      7.37914000     -3.10053000       1
I              -0.51642700      7.99406000     -3.18595000      53
H              -4.51192000      6.99427000     -2.27283000       1
I              -6.13118000      6.10386000     -0.51034800      53
I               6.39384000      0.89957000      5.80577000      53
I              -8.07551000     -0.89643500      3.15047000      53
P              -8.66776000     -1.05148000      0.00293264      15
H              -8.11536000      2.36898000      2.19055000       1
I               0.76438000      8.22106000      3.15047000      53
C              -3.99211000      7.43641000      2.68955000       6
I              -1.70065000      5.47537000     -6.76806000      53
H               7.85373000      2.79926000     -3.14697000       1
I              -6.03319000     -2.93591000     -5.87288000      53
H               0.36742500      2.42935000      8.60731000       1
H               0.74343400      2.29971000     -8.62037000       1
I               2.80670000      6.18159000     -5.87288000      53
I               7.11993000      5.49941000      0.38359800      53
I               8.35190000     -1.12343000     -3.18595000      53
H              -8.41214000      2.43699000     -2.31720000       1
H               7.81164000      4.00204000      2.25436000       1
N              -4.10894000      7.46748000     -3.11044000       7
P               9.04046000     -1.05148000      0.00293264      15
I              -6.81690000      1.57917000     -5.84597000      53
H               4.35356000      6.99315000     -3.94971000       1
H              -7.67657000      3.80617000      3.17277000       1
H              -7.36868000      4.43546000     -3.15023000       1
H              -4.01693000     -0.37783800     -8.25051000       1
H               4.13019000     -1.87542000     -7.98665000       1
N               7.97918000      3.38462000      3.07923000       7
H              -4.50055000      6.99315000     -3.94971000       1
H              -7.35446000     -4.68204000     -3.15023000       1
C               4.86200000      7.43641000      2.68955000       6
H              -3.91646000      8.24160000      1.95754000       1
C              -8.31788000      2.92520000      3.10823000       6
N               4.74517000      7.46748000     -3.11044000       7
H              -8.17984000      2.28527000      3.98223000       1
I               6.46301000      0.91400800     -6.79683000      53
P              -4.24914000     -5.62175000     -6.29846000      15
H              -4.72391000     -1.87542000     -7.98665000       1
H               4.04681000      7.22764000      4.61595000       1
P              -4.31830000     -5.63619000      6.30415000      15
I              -0.57137300     -1.13787000      9.41665000      53
I               2.73753000      6.16715000      6.72972000      53
I               0.84776300     -0.88199600     -9.45213000      53
H               7.74470000      3.93472000      3.93398000       1
I              -6.10235000     -2.95035000      6.72972000      53
H              -4.14249000      0.24455700      8.60458000       1
H               4.83717000     -0.37783800     -8.25051000       1
H               3.32272000     -0.78462400     -8.94425000       1
H              -1.04024000      3.94916000     -8.66862000       1
H              -0.08216570     -4.31318000      8.56583000       1
P               4.53580000     -5.63619000      6.30415000      15
P               4.60497000     -5.62175000     -6.29846000      15
H               7.82585000     -5.11546000      2.25436000       1
H              -8.41752000      2.44379000     -3.99530000       1
H               3.23934000      8.31843000      3.65835000       1
H               5.85426000      7.07653000      2.97078000       1
N               4.27343000     -1.13302000     -8.69687000       7
I               2.05143000     -7.53833000     -5.84597000      53
I              -6.88606000      1.56473000      6.75664000      53
H               4.93765000      8.24160000      1.95754000       1
N              -8.81938000      2.90800000     -3.15378000       7
H               4.71162000      0.24455700      8.60458000       1
N               4.19005000      7.97004000      3.90573000       7
H              -0.09638460      4.80432000      8.56583000       1
H              -4.80730000      7.22764000      4.61595000       1
H              -7.66235000     -5.31132000      3.17277000       1
N               8.88884000      2.90800000     -3.15378000       7
H               5.78325000      7.37914000     -3.10053000       1
N              -0.03443500      2.89356000      9.44882000       7
H               9.29608000      2.43699000     -2.31720000       1
I               7.09851000     -3.65656000      5.83454000      53
N              -4.58067000     -1.13302000     -8.69687000       7
H               4.29861000     -2.13879000      8.65290000       1
H              -1.06954000      2.78482000      9.45563000       1
I              -9.35631000     -1.12343000     -3.18595000      53
C               0.60538800      2.93964000     -9.49437000       6
H              -4.07355000     -8.86758000     -2.20344000       1
H              -4.55549000     -2.13879000      8.65290000       1
H               3.20538000     -0.17086100      9.48766000       1
C              -8.45775000      4.35140000     -3.14509000       6
N              -4.66406000      7.97004000      3.90573000       7
H               3.26033000      8.96107000     -3.11494000       1
H              -1.45217000      2.59474000     -9.59575000       1
H               8.85067000     -4.31176000     -2.24229000       1
H              -8.85755000     -4.31176000     -2.24229000       1
H               9.59286000      2.36898000      2.19055000       1
H               7.75892000     -5.18278000      3.93398000       1
